File H:\Doctora\Thesis\model-comparisons\sap-v24-models\wall-1element-dynamic-inelastic\wall-1element-dynamic-inelastic.$2k was saved on m/d/yy at h:mm:ss
 
TABLE:  "ACTIVE DEGREES OF FREEDOM"
   UX=Yes   UY=No   UZ=Yes   RX=No   RY=Yes   RZ=No
 
TABLE:  "ANALYSIS OPTIONS"
   Solver=Advanced   SolverProc=Auto   Force32Bit=No   StiffCase=None   GeomMod=None   HingeOpt="In Elements"   NumAThreads=0   MaxFileSize=0   NumDThreads=0   NumRThreads=0   UseMMFiles="Program Determined"   AllowDiff=No
 
TABLE:  "AREA SECTION ASSIGNMENTS"
   Area=0   Section=plain-stress   MatProp=Default
 
TABLE:  "AREA SECTION PROPERTIES"
   Section=plain-stress   Material=steel   MatAngle=0   AreaType=Plane   Type=Plane-Stress   Thickness=0.01   InComp=No   Color=Green   F11Mod=1   F22Mod=1   F12Mod=1   M11Mod=1   M22Mod=1   M12Mod=1   V13Mod=1   V23Mod=1   MMod=1   WMod=1   Notes="Added 2023-09-24 11:13:58 AM"
 
TABLE:  "AUTO WAVE 3 - WAVE CHARACTERISTICS - GENERAL"
   WaveChar=Default   WaveType="From Theory"   KinFactor=1   SWaterDepth=45   WaveHeight=18   WavePeriod=12   WaveTheory=Linear
 
TABLE:  "CASE - MODAL 1 - GENERAL"
   Case=MODAL   ModeType=Eigen   MaxNumModes=12   MinNumModes=1   EigenShift=0   EigenCutoff=0   EigenTol=1E-09   AutoShift=Yes
 
TABLE:  "CASE - MODAL HISTORY 1 - GENERAL"
   Case=elastic-0.02   HistoryType=Transient   OutSteps=50   StepSize=0.02   ConstDamp=0
 
TABLE:  "CASE - MODAL HISTORY 2 - LOAD ASSIGNMENTS"
   Case=elastic-0.02   LoadType="Load pattern"   LoadName=Point   Function=th-0.002   LoadSF=1000000   TimeFactor=1   ArrivalTime=0
 
TABLE:  "CASE - STATIC 1 - LOAD ASSIGNMENTS"
   Case=DEAD   LoadType="Load pattern"   LoadName=DEAD   LoadSF=1
   Case=Point   LoadType="Load pattern"   LoadName=Point   LoadSF=1
 
TABLE:  "CONNECTIVITY - AREA"
   Area=0   Joint1=0   Joint2=1   Joint3=2   Joint4=3   GUID=9d293810-6779-45b6-8956-fa4a1cdccb4d
 
TABLE:  "COORDINATE SYSTEMS"
   Name=GLOBAL   Type=Cartesian   X=0   Y=0   Z=0   AboutZ=0   AboutY=0   AboutX=0
 
TABLE:  "DATABASE DOCUMENTATION"
 
TABLE:  "DATABASE FORMAT TYPES"
   UnitsCurr=Yes   OverrideE=No
 
TABLE:  "FUNCTION - PLOT FUNCTIONS"
   PlotFunc=disp-2-0   Type=Joint   ObjectLabel=2   Component=RelDispU1   Mode=All
   PlotFunc=disp-2-1   Type=Joint   ObjectLabel=2   Component=RelDispU3   Mode=All
   PlotFunc=disp-3-0   Type=Joint   ObjectLabel=3   Component=RelDispU1   Mode=All
   PlotFunc=disp-3-1   Type=Joint   ObjectLabel=3   Component=RelDispU3   Mode=All
 
TABLE:  "FUNCTION - POWER SPECTRAL DENSITY - USER"
   Name=UNIFPSD   Frequency=0   Value=1
   Name=UNIFPSD   Frequency=1   Value=1
 
TABLE:  "FUNCTION - RESPONSE SPECTRUM - USER"
   Name=UNIFRS   Period=0   Accel=1   FuncDamp=0.05
   Name=UNIFRS   Period=1   Accel=1
 
TABLE:  "FUNCTION - STEADY STATE - USER"
   Name=UNIFSS   Frequency=0   Value=1
   Name=UNIFSS   Frequency=1   Value=1
 
TABLE:  "FUNCTION - TIME HISTORY - USER"
   Name=th-0.02   Time=0   Value=0
   Name=th-0.02   Time=0.02   Value=22661.246
   Name=th-0.02   Time=0.04   Value=43104.25
   Name=th-0.02   Time=0.06   Value=73661.25
   Name=th-0.02   Time=0.08   Value=69744.14
   Name=th-0.02   Time=0.1   Value=86666.67
   Name=th-0.02   Time=0.12   Value=85077.48
   Name=th-0.02   Time=0.14   Value=73661.25
   Name=th-0.02   Time=0.16   Value=80104.25
   Name=th-0.02   Time=0.18   Value=66994.58
   Name=th-0.02   Time=0.2   Value=63333.33
   Name=th-0.02   Time=0.22   Value=61733.33
   Name=th-0.02   Time=0.24   Value=41833.33
   Name=th-0.02   Time=0.26   Value=16994.58
   Name=th-0.02   Time=0.28   Value=104.2518
   Name=th-0.02   Time=0.3   Value=0
   Name=th-0.02   Time=0.32   Value=-30077.48
   Name=th-0.02   Time=0.34   Value=-15000
   Name=th-0.02   Time=0.36   Value=-33333.3
   Name=th-0.02   Time=0.38   Value=-45327.9
# ... 532 like lines cut
 
TABLE:  "GRID LINES"
   CoordSys=GLOBAL   AxisDir=X   GridID=A   XRYZCoord=0   LineType=Primary   LineColor=Gray8Dark   Visible=Yes   BubbleLoc=End   AllVisible=Yes   BubbleSize=0.25
   CoordSys=GLOBAL   AxisDir=X   GridID=B   XRYZCoord=0.5   LineType=Primary   LineColor=Gray8Dark   Visible=Yes   BubbleLoc=End
   CoordSys=GLOBAL   AxisDir=X   GridID=C   XRYZCoord=2   LineType=Primary   LineColor=Gray8Dark   Visible=Yes   BubbleLoc=End
   CoordSys=GLOBAL   AxisDir=X   GridID=D   XRYZCoord=3   LineType=Primary   LineColor=Gray8Dark   Visible=Yes   BubbleLoc=End
   CoordSys=GLOBAL   AxisDir=Y   GridID=1   XRYZCoord=0   LineType=Primary   LineColor=Gray8Dark   Visible=Yes   BubbleLoc=Start
   CoordSys=GLOBAL   AxisDir=Z   GridID=Z1   XRYZCoord=0   LineType=Primary   LineColor=Gray8Dark   Visible=Yes   BubbleLoc=End
   CoordSys=GLOBAL   AxisDir=Z   GridID=Z2   XRYZCoord=3   LineType=Primary   LineColor=Gray8Dark   Visible=Yes   BubbleLoc=End
   CoordSys=GLOBAL   AxisDir=Z   GridID=Z3   XRYZCoord=5   LineType=Primary   LineColor=Gray8Dark   Visible=Yes   BubbleLoc=End
   CoordSys=GLOBAL   AxisDir=Z   GridID=Z4   XRYZCoord=6   LineType=Primary   LineColor=Gray8Dark   Visible=Yes   BubbleLoc=End
 
TABLE:  "GROUPS 1 - DEFINITIONS"
   GroupName=ALL   Selection=Yes   SectionCut=Yes   Steel=Yes   Concrete=Yes   Aluminum=Yes   ColdFormed=Yes   Stage=Yes   Bridge=Yes   AutoSeismic=No   AutoWind=No   SelDesSteel=No   SelDesAlum=No   SelDesCold=No   MassWeight=Yes   Color=Red
 
TABLE:  "JOINT COORDINATES"
   Joint=0   CoordSys=GLOBAL   CoordType=Cartesian   XorR=0   Y=0   Z=3   SpecialJt=No   GUID=4f05ad8f-bd61-44c9-a060-afbc2f82f42c
   Joint=1   CoordSys=GLOBAL   CoordType=Cartesian   XorR=2   Y=0   Z=0   SpecialJt=No   GUID=60976ca9-4fdf-48c3-a453-5c6dd550a1dd
   Joint=2   CoordSys=GLOBAL   CoordType=Cartesian   XorR=3   Y=0   Z=6   SpecialJt=No   GUID=2d1c2d87-4726-4667-81a9-63eb904743ff
   Joint=3   CoordSys=GLOBAL   CoordType=Cartesian   XorR=0.5   Y=0   Z=5   SpecialJt=No   GUID=c2c911d5-b532-40ab-a738-3ac4058d6b1c
 
TABLE:  "JOINT LOADS - FORCE"
   Joint=2   LoadPat=Point   CoordSys=GLOBAL   F1=2   F2=0   F3=-1.5   M1=0   M2=0   M3=0   GUID=3dbb4c6f-a94b-4475-ae16-16eae513568d
 
TABLE:  "JOINT PATTERN DEFINITIONS"
   Pattern=Default
 
TABLE:  "JOINT RESTRAINT ASSIGNMENTS"
   Joint=0   U1=Yes   U2=Yes   U3=Yes   R1=No   R2=No   R3=No
   Joint=1   U1=Yes   U2=Yes   U3=Yes   R1=No   R2=No   R3=No
 
TABLE:  "LOAD CASE DEFINITIONS"
   Case=DEAD   Type=LinStatic   InitialCond=Zero   DesTypeOpt="Prog Det"   DesignType=Dead   DesActOpt="Prog Det"   DesignAct=Non-Composite   AutoType=None   RunCase=No   GUID=c7eb9aaf-8c86-403b-bf19-1270be9cfdee
   Case=MODAL   Type=LinModal   InitialCond=Zero   DesTypeOpt="Prog Det"   DesignType=Other   DesActOpt="Prog Det"   DesignAct=Other   AutoType=None   RunCase=Yes   GUID=df49f081-2b3b-4d05-9123-f787c2c4f9d3
   Case=Point   Type=LinStatic   InitialCond=Zero   DesTypeOpt="Prog Det"   DesignType=Other   DesActOpt="Prog Det"   DesignAct=Other   AutoType=None   RunCase=Yes   GUID=58788a8b-a0b1-4a8d-bd05-2c78854a67ca
   Case=elastic-0.02   Type=LinModHist   InitialCond=Zero   ModalCase=MODAL   DesTypeOpt="Prog Det"   DesignType=Other   DesActOpt="Prog Det"   DesignAct="Short-Term Composite"   AutoType=None   RunCase=Yes   GUID=cd4c962e-1b9a-469d-9ec1-e86e630f9cc8
 
TABLE:  "LOAD PATTERN DEFINITIONS"
   LoadPat=DEAD   DesignType=Dead   SelfWtMult=1   GUID=96eaea25-8196-4cb1-94f6-f8e81a6193eb
   LoadPat=Point   DesignType=Other   SelfWtMult=0   GUID=70d09e56-8e55-4b6c-8a7e-3a914bc69b0d   Notes="Added 2023-09-28 5:30:12 AM"
 
TABLE:  "MASS SOURCE"
   MassSource=MSSSRC1   Elements=Yes   Masses=Yes   Loads=No   IsDefault=Yes
 
TABLE:  "MATERIAL PROPERTIES 01 - GENERAL"
   Material=4000Psi   Type=Concrete   Grade="f'c 4000 psi"   SymType=Isotropic   TempDepend=No   Color=Blue   GUID=1c14b7d7-dbe7-4894-a605-d15ab9d385af   Notes="Customary f'c 4000 psi 2023-09-24 11:22:40 AM"
   Material=A416Gr270   Type=Tendon   Grade="Grade 270"   SymType=Uniaxial   TempDepend=No   Color=Gray8Dark   GUID=3d82b41e-2549-43b2-a30e-5c2cd529a4f9   Notes="ASTM A416 Grade 270 2023-09-28 9:48:00 AM"
   Material=steel   Type=Steel   Grade="Grade 50"   SymType=Isotropic   TempDepend=No   Color=Magenta   Notes="ASTM A992 Grade 50 2023-09-24 10:59:42 AM"
 
TABLE:  "MATERIAL PROPERTIES 02 - BASIC MECHANICAL PROPERTIES"
   Material=4000Psi   UnitWeight=23563.1216161854   UnitMass=2402.76960558926   E1=24855578060.0518   G12=10356490858.3549   U12=0.2   A1=9.89999952793124E-06
   Material=A416Gr270   UnitWeight=76972.8639422648   UnitMass=7849.04737995992   E1=196500599851.2   A1=1.16999994421006E-05
   Material=steel   UnitWeight=19.6135   UnitMass=2.00002035361544   E1=200000000000   G12=76923076923.0769   U12=0.3   A1=1.16999994421006E-05
 
TABLE:  "MATERIAL PROPERTIES 03A - STEEL DATA"
   Material=steel   Fy=240000000   Fu=448159262.818526   EffFy=379211683.923368   EffFu=492975189.100378   SSCurveOpt=Simple   SSHysType=Kinematic   SHard=0.015   SMax=0.11   SRup=0.17   FinalSlope=-0.1   CoupModType="Von Mises"
 
TABLE:  "MATERIAL PROPERTIES 03B - CONCRETE DATA"
   Material=4000Psi   Fc=27579031.5580631   eFc=27579031.5580631   LtWtConc=No   SSCurveOpt=Mander   SSHysType=Takeda   SFc=0.00221914   SCap=0.005   FinalSlope=-0.1   FAngle=0   DAngle=0   CoupModType="Modified Darwin-Pecknold"
 
TABLE:  "MATERIAL PROPERTIES 03F - TENDON DATA"
   Material=A416Gr270   Fy=1689905158.72032   Fu=1861584630.16926   SSCurveOpt="270 ksi"   SSHysType=Kinematic   FinalSlope=-0.1   CoupModType="Von Mises"
 
TABLE:  "MATERIAL PROPERTIES 03J - COUPLED NONLINEAR VON MISES DATA"
   Material=A416Gr270   YieldStress=1689905158.72032   LinIsoHard=No   LinKinHard=No   NLIsoSaHard=No
   Material=steel   YieldStress=379211683.923368   LinIsoHard=No   LinKinHard=No   NLIsoSaHard=No
 
TABLE:  "MATERIAL PROPERTIES 06 - DAMPING PARAMETERS"
   Material=4000Psi   ModalRatio=0   VisMass=0   VisStiff=0   HysMass=0   HysStiff=0
   Material=A416Gr270   ModalRatio=0   VisMass=0   VisStiff=0   HysMass=0   HysStiff=0
   Material=steel   ModalRatio=0   VisMass=0   VisStiff=0   HysMass=0   HysStiff=0
 
TABLE:  "MATERIAL PROPERTIES 09 - ACCEPTANCE CRITERIA"
   Material=4000Psi   IOTens=0.01   LSTens=0.02   CPTens=0.05   IOComp=-0.003   LSComp=-0.006   CPComp=-0.015   IgnoreTens=Yes
   Material=A416Gr270   IOTens=0.015   LSTens=0.023   CPTens=0.03   IOComp=-0.015   LSComp=-0.023   CPComp=-0.03
   Material=steel   IOTens=0.01   LSTens=0.02   CPTens=0.05   IOComp=-0.005   LSComp=-0.01   CPComp=-0.02
 
TABLE:  "OPTIONS - COLORS - DISPLAY"
   DeviceType=Screen   Points=Blue   LinesFrame=Blue   LinesFrmDL=Blue   LinesCable=Green   LinesTendon=Green   SpringLinks=Green   Restraints=Green   Releases=Green   Axes=Cyan   Text=Black   ShadowLines=Gray8Dark   GuideLines=Gray8Dark _
        Highlight=Red   Selection=10504778   AreaFillBot=Red   AreaFillTop=16744703   AreaFillSd=Red   AreaEdge=DarkRed   SolidF1=Red   SolidF2=Blue   SolidF3=Green   SolidF4=Yellow   SolidF5=White   SolidF6=Cyan   SolidEdge=DarkRed _
        Floor=Gray4   Background=White   BGLowLeft=White   BGLowRight=White   BGUpRight=White   Darkness=0.5
   DeviceType=Printer   Points=Gray8Dark   LinesFrame=Black   LinesFrmDL=Gray4   LinesCable=Black   LinesTendon=Black   SpringLinks=Gray8Dark   Restraints=Gray8Dark   Releases=Gray4   Axes=Black   Text=Black   ShadowLines=Gray4 _
        GuideLines=Gray4   Highlight=Black   Selection=Black   AreaFillBot=Gray4   AreaFillTop=Gray8Dark   AreaFillSd=Gray4   AreaEdge=Black   SolidF1=Gray1Light   SolidF2=Gray2   SolidF3=Gray3   SolidF4=Gray4   SolidF5=Gray5 _
        SolidF6=Gray6   SolidEdge=Black   Floor=Gray4   Background=White   BGLowLeft=White   BGLowRight=White   BGUpRight=White   Darkness=0.5
   DeviceType="Color Printer"   Points=Blue   LinesFrame=Blue   LinesFrmDL=Blue   LinesCable=Green   LinesTendon=Green   SpringLinks=Green   Restraints=Green   Releases=Green   Axes=Cyan   Text=Black   ShadowLines=Gray8Dark _
        GuideLines=Gray8Dark   Highlight=Red   Selection=10504778   AreaFillBot=Red   AreaFillTop=16744703   AreaFillSd=Red   AreaEdge=DarkRed   SolidF1=Red   SolidF2=Blue   SolidF3=Green   SolidF4=Yellow   SolidF5=White   SolidF6=Cyan _
        SolidEdge=DarkRed   Floor=Gray4   Background=White   BGLowLeft=White   BGLowRight=White   BGUpRight=White   Darkness=0.5
 
TABLE:  "OPTIONS - COLORS - OUTPUT"
   DeviceType=Screen   Contour1=13107400   Contour2=6553828   Contour3=Red   Contour4=16639   Contour5=Orange   Contour6=43775   Contour7=54527   Contour8=Yellow   Contour9=65408   Contour10=Green   Contour11=8453888   Contour12=Cyan _
        Contour13=16755200   Contour14=16733440   Contour15=Blue   Transpare=0   Ratio1=Cyan   Ratio2=Green   Ratio3=Yellow   Ratio4=Orange   Ratio5=Red   RatioNotD=Gray4   RatioNotC=Red   RatioVal1=0.5   RatioVal2=0.7   RatioVal3=0.9 _
        RatioVal4=1   DFillPos=Blue   DFillNeg=Red   DFillRPos=Green   DFillRNeg=Green
   DeviceType=Printer   Contour1=Black   Contour2=3158064   Contour3=4210752   Contour4=5263440   Contour5=6316128   Contour6=7368816   Contour7=Gray8Dark   Contour8=Gray7   Contour9=Gray6   Contour10=Gray5   Contour11=Gray4 _
        Contour12=Gray3   Contour13=Gray2   Contour14=Gray1Light   Contour15=White   Transpare=0   Ratio1=Gray2   Ratio2=Gray4   Ratio3=Gray8Dark   Ratio4=4210752   Ratio5=Black   RatioNotD=Gray4   RatioNotC=Black   RatioVal1=0.5 _
        RatioVal2=0.7   RatioVal3=0.9   RatioVal4=1   DFillPos=Gray8Dark   DFillNeg=Gray8Dark   DFillRPos=4210752   DFillRNeg=4210752
   DeviceType="Color Printer"   Contour1=13107400   Contour2=6553828   Contour3=Red   Contour4=16639   Contour5=Orange   Contour6=43775   Contour7=54527   Contour8=Yellow   Contour9=65408   Contour10=Green   Contour11=8453888 _
        Contour12=Cyan   Contour13=16755200   Contour14=16733440   Contour15=Blue   Transpare=0   Ratio1=Cyan   Ratio2=Green   Ratio3=Yellow   Ratio4=Orange   Ratio5=Red   RatioNotD=Gray4   RatioNotC=Red   RatioVal1=0.5   RatioVal2=0.7 _
        RatioVal3=0.9   RatioVal4=1   DFillPos=Blue   DFillNeg=Red   DFillRPos=Green   DFillRNeg=Green
 
TABLE:  "PREFERENCES - ALUMINUM DESIGN - AA 2015"
   THDesign=Envelopes   SRatioLimit=1   Provision=LRFD   LatFact=1.33333333333333   UseLatFact=No   Bridge=No   PhiTy=0.9   PhiTr=0.75   PhiC=0.9   PhiBo=0.9   PhiBr=0.75   PhiVo=0.9   PhiVr=0.75
 
TABLE:  "PREFERENCES - COLD FORMED DESIGN - AISI-16"
   THDesign=Envelopes   FrameType="Braced Frame"   SRatioLimit=1   SOMethod="General 2nd Order"   Provision=LRFD   LatFact=1.33333333333333   UseLatFact=No   PhiTy=0.9   PhiTr=0.75   PhiC=0.85   PhiB=0.9   PhiBPipe=0.95   PhiV=0.95
 
TABLE:  "PREFERENCES - CONCRETE DESIGN - ACI 318-19"
   THDesign=Envelopes   NumCurves=24   NumPoints=11   MinEccen=Yes   BCCDesign=Yes   IgnoreBPu=Yes   CTorsion=Yes   PatLLF=0.75   UFLimit=0.95   SeisCat=D   Rho=1   Sds=0.5   PhiT=0.9   PhiCTied=0.65   PhiCSpiral=0.75   PhiV=0.75 _
        PhiVSeismic=0.6   PhiVJoint=0.85   TanTheta=1
 
TABLE:  "PREFERENCES - CONCRETE SHELL DESIGN - EUROCODE 2-2004"
   Country="CEN Default"   GammaS=1.15   GammaC=1.5   AlphaCC=1   AlphaCT=1   CrackCond="Program Determined"   ShrDesMet="Method 1"   CotTheta=1
 
TABLE:  "PREFERENCES - DIMENSIONAL"
   MergeTol=0.001   FineGrid=0.25   Nudge=0.25   SelectTol=3   SnapTol=12   SLineThick=2   PLineThick=4   MaxFont=8   MinFont=3   AutoZoom=10   ShrinkFact=70   TextFileLen=240
 
TABLE:  "PREFERENCES - STEEL DESIGN - AISC 360-16"
   THDesign=Envelopes   FrameType=SMF   PatLLF=0.75   SRatioLimit=0.95   MaxIter=1   SDC=D   SeisCode=No   SeisLoad=No   ImpFactor=1   SystemRho=1   SystemSds=0.5   SystemR=8   SystemCd=5.5   Omega0=3   Provision=LRFD _
        AMethod="Direct Analysis"   SOMethod="General 2nd Order"   SRMethod="Tau-b Fixed"   NLCoeff=0.002   PhiB=0.9   PhiC=0.9   PhiTY=0.9   PhiTF=0.75   PhiV=0.9   PhiVRolledI=1   PhiVT=0.9   PlugWeld=Yes   HSSWelding=ERW   HSSReduceT=No _
        CheckDefl=No   DLRat=120   SDLAndLLRat=120   LLRat=360   TotalRat=240   NetRat=240
 
TABLE:  "PROGRAM CONTROL"
   ProgramName=SAP2000   Version=24.1.0   CurrUnits="N, m, C"   SteelCode="AISC 360-16"   ConcCode="ACI 318-19"   AlumCode="AA 2015"   ColdCode=AISI-16   RegenHinge=Yes
 
TABLE:  "PROJECT INFORMATION"
   Item="Company Name"
   Item="Client Name"
   Item="Project Name"
   Item="Project Number"
   Item="Model Name"
   Item="Model Description"
   Item="Revision Number"
   Item="Frame Type"
   Item=Engineer
   Item=Checker
   Item=Supervisor
   Item="Issue Code"
   Item="Design Code"
 
TABLE:  "REBAR SIZES"
   RebarID=#2   Area=3.2258E-05   Diameter=0.00635
   RebarID=#3   Area=7.09675996154547E-05   Diameter=0.009525
   RebarID=#4   Area=0.000129032001922727   Diameter=0.0127
   RebarID=#5   Area=0.000199999601538181   Diameter=0.015875
   RebarID=#6   Area=0.000283870398461819   Diameter=0.01905
   RebarID=#7   Area=0.000387096015381813   Diameter=0.022225
   RebarID=#8   Area=0.000509676413843632   Diameter=0.0254
   RebarID=#9   Area=0.00064516   Diameter=0.0286512005329132
   RebarID=#10   Area=0.00081935318769455   Diameter=0.0322579995155334
   RebarID=#11   Area=0.00100644956308365   Diameter=0.0358139991521835
   RebarID=#14   Area=0.00145161   Diameter=0.0430021989583969
   RebarID=#18   Area=0.00258064   Diameter=0.0573277992248535
   RebarID=10M   Area=0.000100000002655387   Diameter=0.011300000667572
   RebarID=15M   Area=0.000200000005310774   Diameter=0.0159999999403954
   RebarID=20M   Area=0.000300000017579794   Diameter=0.0194999997854233
   RebarID=25M   Area=0.000500000022890568   Diameter=0.0252000016093254
   RebarID=30M   Area=0.000700000008974075   Diameter=0.0299000008821487
   RebarID=35M   Area=0.00100000004578114   Diameter=0.0357000011444092
   RebarID=45M   Area=0.00150000010712624   Diameter=0.0437000003576279
   RebarID=55M   Area=0.00250000007599831   Diameter=0.0564000033855438
   RebarID=6d   Area=2.83000004149973E-05   Diameter=0.006000000166893
   RebarID=8d   Area=5.02999995571375E-05   Diameter=0.00799999997019768
   RebarID=10d   Area=7.85000013634562E-05   Diameter=0.00999999977350235
   RebarID=12d   Area=0.000113000009249449   Diameter=0.012000000333786
   RebarID=14d   Area=0.000154000010818839   Diameter=0.0140000008940697
   RebarID=16d   Area=0.000201000015431643   Diameter=0.0159999999403954
   RebarID=20d   Area=0.000314000005453825   Diameter=0.0199999995470047
   RebarID=25d   Area=0.000491000008711815   Diameter=0.0250000001907349
   RebarID=26d   Area=0.000531000029001236   Diameter=0.0259999997138977
   RebarID=28d   Area=0.000616000043275356   Diameter=0.0280000017881393
   RebarID=N12   Area=0.000113000009249449   Diameter=0.012000000333786
   RebarID=N16   Area=0.000201000015431643   Diameter=0.0159999999403954
   RebarID=N20   Area=0.000314000005453825   Diameter=0.0199999995470047
   RebarID=N24   Area=0.000452000036997795   Diameter=0.024000000667572
   RebarID=N28   Area=0.000616000043275356   Diameter=0.0280000017881393
   RebarID=N32   Area=0.00080400006172657   Diameter=0.0319999998807907
   RebarID=N36   Area=0.00102000001747131   Diameter=0.036000001001358
 
TABLE:  "SOLID PROPERTY DEFINITIONS"
   SolidProp=Solid1   Material=4000Psi   MatAngleA=0   MatAngleB=0   MatAngleC=0   InComp=Yes   Color=Cyan
 
END TABLE DATA
