File H:\Doctora\Thesis\model-comparisons\sap-v24-models\3d-2side-static-inelastic\3d-2side-static-inelastic.$2k was saved on m/d/yy at h:mm:ss
 
TABLE:  "ACTIVE DEGREES OF FREEDOM"
   UX=Yes   UY=Yes   UZ=Yes   RX=Yes   RY=Yes   RZ=Yes
 
TABLE:  "ANALYSIS OPTIONS"
   Solver=Advanced   SolverProc=Auto   Force32Bit=No   StiffCase=None   GeomMod=None   HingeOpt="In Elements"   NumAThreads=0   MaxFileSize=0   NumDThreads=0   NumRThreads=0   UseMMFiles="Program Determined"   AllowDiff=No
 
TABLE:  "AUTO WAVE 3 - WAVE CHARACTERISTICS - GENERAL"
   WaveChar=Default   WaveType="From Theory"   KinFactor=1   SWaterDepth=45   WaveHeight=18   WavePeriod=12   WaveTheory=Linear
 
TABLE:  "CASE - MODAL 1 - GENERAL"
   Case=MODAL   ModeType=Eigen   MaxNumModes=12   MinNumModes=1   EigenShift=0   EigenCutoff=0   EigenTol=1E-09   AutoShift=Yes
 
TABLE:  "CASE - STATIC 1 - LOAD ASSIGNMENTS"
   Case=DEAD   LoadType="Load pattern"   LoadName=DEAD   LoadSF=1
   Case=static-elastic   LoadType="Load pattern"   LoadName=DEAD   LoadSF=1000
   Case=static-inelastic   LoadType="Load pattern"   LoadName=DEAD   LoadSF=7000
 
TABLE:  "CASE - STATIC 2 - NONLINEAR LOAD APPLICATION"
   Case=static-inelastic   LoadApp="Full Load"   MonitorDOF=U1   MonitorJt=1
 
TABLE:  "CASE - STATIC 4 - NONLINEAR PARAMETERS"
   Case=static-inelastic   GeoNonLin=None   ResultsSave="Final State"   SolScheme="Iterative Events"   MaxTotal=200   MaxNull=50   EvLumpTol=0.01   MaxEvPerStp=24   MaxIterCS=10   MaxIterNR=40   ItConvTol=0.0001   TFMaxIter=10   TFTol=0.01 _
        TFAccelFact=1   TFNoStop=No
 
TABLE:  "CONNECTIVITY - FRAME"
   Frame=0   JointI=0   JointJ=1   IsCurved=No   GUID=79a8764d-6343-4d88-846a-865114173ca1
   Frame=1   JointI=1   JointJ=2   IsCurved=No   GUID=a8bec722-3f97-4779-908c-ea0a0a989c9c
   Frame=2   JointI=2   JointJ=3   IsCurved=No   GUID=095235e8-60b7-4ddb-84e4-70347085c3f5
   Frame=3   JointI=4   JointJ=3   IsCurved=No   GUID=db2803d6-3003-4298-aacb-59a9441035ba
   Frame=4   JointI=3   JointJ=5   IsCurved=No   GUID=c26ecf3f-ebd3-46cb-acf9-5566261fb51f
   Frame=5   JointI=5   JointJ=6   IsCurved=No   GUID=991ecd22-5dbc-40bc-8a6b-b2da3b5f91df
   Frame=6   JointI=7   JointJ=6   IsCurved=No   GUID=282b7835-5f59-4dc5-83cc-82ab8ee54712
 
TABLE:  "COORDINATE SYSTEMS"
   Name=GLOBAL   Type=Cartesian   X=0   Y=0   Z=0   AboutZ=0   AboutY=0   AboutX=0
 
TABLE:  "DATABASE DOCUMENTATION"
 
TABLE:  "DATABASE FORMAT TYPES"
   UnitsCurr=Yes   OverrideE=No
 
TABLE:  "FRAME AUTO MESH ASSIGNMENTS"
   Frame=0   AutoMesh=Yes   AtJoints=Yes   AtFrames=No   NumSegments=0   MaxLength=0   MaxDegrees=0
   Frame=1   AutoMesh=Yes   AtJoints=Yes   AtFrames=No   NumSegments=0   MaxLength=0   MaxDegrees=0
   Frame=2   AutoMesh=Yes   AtJoints=Yes   AtFrames=No   NumSegments=0   MaxLength=0   MaxDegrees=0
   Frame=3   AutoMesh=Yes   AtJoints=Yes   AtFrames=No   NumSegments=0   MaxLength=0   MaxDegrees=0
   Frame=4   AutoMesh=Yes   AtJoints=Yes   AtFrames=No   NumSegments=0   MaxLength=0   MaxDegrees=0
   Frame=5   AutoMesh=Yes   AtJoints=Yes   AtFrames=No   NumSegments=0   MaxLength=0   MaxDegrees=0
   Frame=6   AutoMesh=Yes   AtJoints=Yes   AtFrames=No   NumSegments=0   MaxLength=0   MaxDegrees=0
 
TABLE:  "FRAME DESIGN PROCEDURES"
   Frame=0   DesignProc="From Material"
   Frame=1   DesignProc="From Material"
   Frame=2   DesignProc="From Material"
   Frame=3   DesignProc="From Material"
   Frame=4   DesignProc="From Material"
   Frame=5   DesignProc="From Material"
   Frame=6   DesignProc="From Material"
 
TABLE:  "FRAME HINGE ASSIGNS 02 - USER DEFINED PROPERTIES"
   Frame=0   AssignProp=p-m2-m3-21p   DistType=RelDist   RelDist=0
   Frame=0   AssignProp=p-m2-m3-21p   DistType=RelDist   RelDist=1
   Frame=1   AssignProp=p-m2-m3-21p   DistType=RelDist   RelDist=0
   Frame=1   AssignProp=p-m2-m3-21p   DistType=RelDist   RelDist=1
   Frame=2   AssignProp=p-m2-m3-21p   DistType=RelDist   RelDist=0
   Frame=2   AssignProp=p-m2-m3-21p   DistType=RelDist   RelDist=1
   Frame=3   AssignProp=p-m2-m3-21p   DistType=RelDist   RelDist=0
   Frame=3   AssignProp=p-m2-m3-21p   DistType=RelDist   RelDist=1
   Frame=4   AssignProp=p-m2-m3-21p   DistType=RelDist   RelDist=0
   Frame=4   AssignProp=p-m2-m3-21p   DistType=RelDist   RelDist=1
   Frame=5   AssignProp=p-m2-m3-21p   DistType=RelDist   RelDist=0
   Frame=5   AssignProp=p-m2-m3-21p   DistType=RelDist   RelDist=1
   Frame=6   AssignProp=p-m2-m3-21p   DistType=RelDist   RelDist=0
   Frame=6   AssignProp=p-m2-m3-21p   DistType=RelDist   RelDist=1
 
TABLE:  "FRAME HINGE ASSIGNS 09 - HINGE OVERWRITES"
   Frame=0   AutoDivide=No   NoLoadDrop=No   LimNegStiff=0.1
   Frame=1   AutoDivide=No   NoLoadDrop=No   LimNegStiff=0.1
   Frame=2   AutoDivide=No   NoLoadDrop=No   LimNegStiff=0.1
   Frame=3   AutoDivide=No   NoLoadDrop=No   LimNegStiff=0.1
   Frame=4   AutoDivide=No   NoLoadDrop=No   LimNegStiff=0.1
   Frame=5   AutoDivide=No   NoLoadDrop=No   LimNegStiff=0.1
   Frame=6   AutoDivide=No   NoLoadDrop=No   LimNegStiff=0.1
 
TABLE:  "FRAME LOAD TRANSFER OPTIONS"
   Frame=0   Transfer=Yes
   Frame=1   Transfer=Yes
   Frame=2   Transfer=Yes
   Frame=3   Transfer=Yes
   Frame=4   Transfer=Yes
   Frame=5   Transfer=Yes
   Frame=6   Transfer=Yes
 
TABLE:  "FRAME OUTPUT STATION ASSIGNMENTS"
   Frame=0   StationType=MinNumSta   MinNumSta=3   AddAtElmInt=Yes   AddAtPtLoad=Yes
   Frame=1   StationType=MaxStaSpcg   MaxStaSpcg=0.5   AddAtElmInt=Yes   AddAtPtLoad=Yes
   Frame=2   StationType=MaxStaSpcg   MaxStaSpcg=0.5   AddAtElmInt=Yes   AddAtPtLoad=Yes
   Frame=3   StationType=MinNumSta   MinNumSta=3   AddAtElmInt=Yes   AddAtPtLoad=Yes
   Frame=4   StationType=MaxStaSpcg   MaxStaSpcg=0.5   AddAtElmInt=Yes   AddAtPtLoad=Yes
   Frame=5   StationType=MaxStaSpcg   MaxStaSpcg=0.5   AddAtElmInt=Yes   AddAtPtLoad=Yes
   Frame=6   StationType=MinNumSta   MinNumSta=3   AddAtElmInt=Yes   AddAtPtLoad=Yes
 
TABLE:  "FRAME SECTION ASSIGNMENTS"
   Frame=0   AutoSelect=N.A.   AnalSect=rectangle   MatProp=Default
   Frame=1   AutoSelect=N.A.   AnalSect=rectangle   MatProp=Default
   Frame=2   AutoSelect=N.A.   AnalSect=rectangle   MatProp=Default
   Frame=3   AutoSelect=N.A.   AnalSect=rectangle   MatProp=Default
   Frame=4   AutoSelect=N.A.   AnalSect=rectangle   MatProp=Default
   Frame=5   AutoSelect=N.A.   AnalSect=rectangle   MatProp=Default
   Frame=6   AutoSelect=N.A.   AnalSect=rectangle   MatProp=Default
 
TABLE:  "FRAME SECTION PROPERTIES 01 - GENERAL"
   SectionName=rectangle   Material=steel   Shape=Rectangular   t3=0.2   t2=0.04   Area=0.008   TorsConst=3.72913834666667E-06   I33=2.66666666666667E-05   I22=1.06666666666667E-06   I23=0   AS2=0.00666666666666667   AS3=0.00666666666666667 _
        S33Top=0.000266666666666667   S33Bot=0.000266666666666667   S22Left=5.33333333333333E-05   S22Right=5.33333333333333E-05   Z33=0.0004   Z22=8E-05   R33=0.0577350269189626   R22=0.0115470053837925   CGOffset3=0   CGOffset2=0 _
        EccV2=0   EccV3=0   Cw=0   Color=Green   FromFile=No   AMod=1   A2Mod=0   A3Mod=0   JMod=1   I2Mod=1   I3Mod=1   MMod=1   WMod=1   Notes="Added 2023-07-07 6:17:27 PM"
 
TABLE:  "FRAME SECTION PROPERTIES 13 - TIME DEPENDENT"
   SectionName=rectangle   TypeSize=Auto   AutoSFSize=1
 
TABLE:  "FUNCTION - PLOT FUNCTIONS"
   PlotFunc="Input Energy"   Type=Energy   Component=Input   Mode=All
 
TABLE:  "FUNCTION - POWER SPECTRAL DENSITY - USER"
   Name=UNIFPSD   Frequency=0   Value=1
   Name=UNIFPSD   Frequency=1   Value=1
 
TABLE:  "FUNCTION - RESPONSE SPECTRUM - USER"
   Name=UNIFRS   Period=0   Accel=1   FuncDamp=0.05
   Name=UNIFRS   Period=1   Accel=1
 
TABLE:  "FUNCTION - STEADY STATE - USER"
   Name=UNIFSS   Frequency=0   Value=1
   Name=UNIFSS   Frequency=1   Value=1
 
TABLE:  "FUNCTION - TIME HISTORY - USER"
   Name=RAMPTH   Time=0   Value=0
   Name=RAMPTH   Time=1   Value=1
   Name=RAMPTH   Time=4   Value=1
   Name=UNIFTH   Time=0   Value=1
   Name=UNIFTH   Time=1   Value=1
 
TABLE:  "GRID LINES"
   CoordSys=GLOBAL   AxisDir=X   GridID=A   XRYZCoord=0   LineType=Primary   LineColor=Gray8Dark   Visible=Yes   BubbleLoc=End   AllVisible=Yes   BubbleSize=1.0625
   CoordSys=GLOBAL   AxisDir=X   GridID=B   XRYZCoord=2   LineType=Primary   LineColor=Gray8Dark   Visible=Yes   BubbleLoc=End
   CoordSys=GLOBAL   AxisDir=X   GridID=C   XRYZCoord=3   LineType=Primary   LineColor=Gray8Dark   Visible=Yes   BubbleLoc=End
   CoordSys=GLOBAL   AxisDir=Y   GridID=2   XRYZCoord=0   LineType=Primary   LineColor=Gray8Dark   Visible=Yes   BubbleLoc=Start
   CoordSys=GLOBAL   AxisDir=Y   GridID=3   XRYZCoord=3   LineType=Primary   LineColor=Gray8Dark   Visible=Yes   BubbleLoc=Start
   CoordSys=GLOBAL   AxisDir=Y   GridID=4   XRYZCoord=5   LineType=Primary   LineColor=Gray8Dark   Visible=Yes   BubbleLoc=Start
   CoordSys=GLOBAL   AxisDir=Z   GridID=Z1   XRYZCoord=0   LineType=Primary   LineColor=Gray8Dark   Visible=Yes   BubbleLoc=End
   CoordSys=GLOBAL   AxisDir=Z   GridID=Z2   XRYZCoord=3   LineType=Primary   LineColor=Gray8Dark   Visible=Yes   BubbleLoc=End
 
TABLE:  "GROUPS 1 - DEFINITIONS"
   GroupName=ALL   Selection=Yes   SectionCut=Yes   Steel=Yes   Concrete=Yes   Aluminum=Yes   ColdFormed=Yes   Stage=Yes   Bridge=Yes   AutoSeismic=No   AutoWind=No   SelDesSteel=No   SelDesAlum=No   SelDesCold=No   MassWeight=Yes   Color=Red
 
TABLE:  "HINGES DEF 06 - INTERACTING - DEFORM CONTROL - GENERAL"
   HingeName=p-m2-m3   DOFType="Interacting P-M2-M3"   FDType=Moment-Rot   LengthType=Relative   SSRelLen=0.1   SFType=Yield   BeyondE=Extrapolated   PMMorMMSym=Circular
   HingeName=p-m2-m3-21p   DOFType="Interacting P-M2-M3"   FDType=Moment-Rot   LengthType=Relative   SSRelLen=0.1   SFType=Yield   BeyondE=Extrapolated   PMMorMMSym=Circular
   HingeName=p-m2-m3-7c-11p   DOFType="Interacting P-M2-M3"   FDType=Moment-Rot   LengthType=Relative   SSRelLen=0.1   SFType=Yield   BeyondE=Extrapolated   PMMorMMSym=Circular
 
TABLE:  "HINGES DEF 07 - INTERACTING - DEFORM CONTROL - FS AND ANGS"
   HingeName=p-m2-m3   AxForce=0   Angle=0
   HingeName=p-m2-m3-21p   AxForce=0   Angle=0
   HingeName=p-m2-m3-7c-11p   AxForce=0   Angle=0
 
TABLE:  "HINGES DEF 08 - INTERACTING - DEFORM CONTROL - FORCE-DEFORM"
   HingeName=p-m2-m3   AxForce=0   Angle=0   FDPoint=A   MomRatio=0   RCRatio=0
   HingeName=p-m2-m3   AxForce=0   Angle=0   FDPoint=B   MomRatio=1   RCRatio=0
   HingeName=p-m2-m3   AxForce=0   Angle=0   FDPoint=C   MomRatio=1   RCRatio=6
   HingeName=p-m2-m3   AxForce=0   Angle=0   FDPoint=D   MomRatio=1   RCRatio=6
   HingeName=p-m2-m3   AxForce=0   Angle=0   FDPoint=E   MomRatio=1   RCRatio=8
   HingeName=p-m2-m3-21p   AxForce=0   Angle=0   FDPoint=A   MomRatio=0   RCRatio=0
   HingeName=p-m2-m3-21p   AxForce=0   Angle=0   FDPoint=B   MomRatio=1   RCRatio=0
   HingeName=p-m2-m3-21p   AxForce=0   Angle=0   FDPoint=C   MomRatio=1   RCRatio=6
   HingeName=p-m2-m3-21p   AxForce=0   Angle=0   FDPoint=D   MomRatio=1   RCRatio=6
   HingeName=p-m2-m3-21p   AxForce=0   Angle=0   FDPoint=E   MomRatio=1   RCRatio=8
   HingeName=p-m2-m3-7c-11p   AxForce=0   Angle=0   FDPoint=A   MomRatio=0   RCRatio=0
   HingeName=p-m2-m3-7c-11p   AxForce=0   Angle=0   FDPoint=B   MomRatio=1   RCRatio=0
   HingeName=p-m2-m3-7c-11p   AxForce=0   Angle=0   FDPoint=C   MomRatio=1   RCRatio=6
   HingeName=p-m2-m3-7c-11p   AxForce=0   Angle=0   FDPoint=D   MomRatio=1   RCRatio=6
   HingeName=p-m2-m3-7c-11p   AxForce=0   Angle=0   FDPoint=E   MomRatio=1   RCRatio=100
 
TABLE:  "HINGES DEF 09 - INTERACTING - DEFORM CONTROL - ACCEPTANCE"
   HingeName=p-m2-m3   AxForce=0   Angle=0   ACPoint=IO   AC=2
   HingeName=p-m2-m3   AxForce=0   Angle=0   ACPoint=LS   AC=4
   HingeName=p-m2-m3   AxForce=0   Angle=0   ACPoint=CP   AC=6
   HingeName=p-m2-m3-21p   AxForce=0   Angle=0   ACPoint=IO   AC=2
   HingeName=p-m2-m3-21p   AxForce=0   Angle=0   ACPoint=LS   AC=4
   HingeName=p-m2-m3-21p   AxForce=0   Angle=0   ACPoint=CP   AC=6
   HingeName=p-m2-m3-7c-11p   AxForce=0   Angle=0   ACPoint=IO   AC=2
   HingeName=p-m2-m3-7c-11p   AxForce=0   Angle=0   ACPoint=LS   AC=4
   HingeName=p-m2-m3-7c-11p   AxForce=0   Angle=0   ACPoint=CP   AC=6
 
TABLE:  "HINGES DEF 11 - INTERACTING - INTERACTION SURFACE - GENERAL"
   HingeName=p-m2-m3   DOFType="Interacting P-M2-M3"   IntType=User   PCurve=Elastic-Plastic   SymMMandPMM=Double   NumCurves=3   NumPoints=11   ScaleP=1920000   ScaleM2=19200   ScaleM3=96000
   HingeName=p-m2-m3-21p   DOFType="Interacting P-M2-M3"   IntType=User   PCurve=Elastic-Plastic   SymMMandPMM=Double   NumCurves=5   NumPoints=21   ScaleP=1920000   ScaleM2=19200   ScaleM3=96000
   HingeName=p-m2-m3-7c-11p   DOFType="Interacting P-M2-M3"   IntType=User   PCurve=Elastic-Plastic   SymMMandPMM=Double   NumCurves=7   NumPoints=11   ScaleP=1920000   ScaleM2=19200   ScaleM3=96000
 
TABLE:  "HINGES DEF 12 - INTERACTING - INTERACTION SURFACE - DATA"
   HingeName=p-m2-m3   DOFType="Interacting P-M2-M3"   CurveNum=1   PointNum=1   P=-1   M2=0   M3=0
   HingeName=p-m2-m3   DOFType="Interacting P-M2-M3"   CurveNum=1   PointNum=2   P=-0.8   M2=0.225   M3=0
   HingeName=p-m2-m3   DOFType="Interacting P-M2-M3"   CurveNum=1   PointNum=3   P=-0.6   M2=0.45   M3=0
   HingeName=p-m2-m3   DOFType="Interacting P-M2-M3"   CurveNum=1   PointNum=4   P=-0.4   M2=0.675   M3=0
   HingeName=p-m2-m3   DOFType="Interacting P-M2-M3"   CurveNum=1   PointNum=5   P=-0.2   M2=0.9   M3=0
   HingeName=p-m2-m3   DOFType="Interacting P-M2-M3"   CurveNum=1   PointNum=6   P=0   M2=1   M3=0
   HingeName=p-m2-m3   DOFType="Interacting P-M2-M3"   CurveNum=1   PointNum=7   P=0.2   M2=0.9   M3=0
   HingeName=p-m2-m3   DOFType="Interacting P-M2-M3"   CurveNum=1   PointNum=8   P=0.4   M2=0.675   M3=0
   HingeName=p-m2-m3   DOFType="Interacting P-M2-M3"   CurveNum=1   PointNum=9   P=0.6   M2=0.45   M3=0
   HingeName=p-m2-m3   DOFType="Interacting P-M2-M3"   CurveNum=1   PointNum=10   P=0.8   M2=0.225   M3=0
   HingeName=p-m2-m3   DOFType="Interacting P-M2-M3"   CurveNum=1   PointNum=11   P=1   M2=0   M3=0
   HingeName=p-m2-m3   DOFType="Interacting P-M2-M3"   CurveNum=2   PointNum=1   P=-1   M2=0   M3=0
   HingeName=p-m2-m3   DOFType="Interacting P-M2-M3"   CurveNum=2   PointNum=2   P=-0.8   M2=0.1125   M3=0.1125
   HingeName=p-m2-m3   DOFType="Interacting P-M2-M3"   CurveNum=2   PointNum=3   P=-0.6   M2=0.225   M3=0.225
   HingeName=p-m2-m3   DOFType="Interacting P-M2-M3"   CurveNum=2   PointNum=4   P=-0.4   M2=0.3375   M3=0.3375
   HingeName=p-m2-m3   DOFType="Interacting P-M2-M3"   CurveNum=2   PointNum=5   P=-0.2   M2=0.45   M3=0.45
   HingeName=p-m2-m3   DOFType="Interacting P-M2-M3"   CurveNum=2   PointNum=6   P=0   M2=0.5   M3=0.5
   HingeName=p-m2-m3   DOFType="Interacting P-M2-M3"   CurveNum=2   PointNum=7   P=0.2   M2=0.45   M3=0.45
   HingeName=p-m2-m3   DOFType="Interacting P-M2-M3"   CurveNum=2   PointNum=8   P=0.4   M2=0.3375   M3=0.3375
   HingeName=p-m2-m3   DOFType="Interacting P-M2-M3"   CurveNum=2   PointNum=9   P=0.6   M2=0.225   M3=0.225
# ... 13 like lines cut
   HingeName=p-m2-m3-21p   DOFType="Interacting P-M2-M3"   CurveNum=1   PointNum=1   P=-1   M2=0   M3=0
   HingeName=p-m2-m3-21p   DOFType="Interacting P-M2-M3"   CurveNum=1   PointNum=2   P=-0.9   M2=0.1125   M3=0
   HingeName=p-m2-m3-21p   DOFType="Interacting P-M2-M3"   CurveNum=1   PointNum=3   P=-0.8   M2=0.225   M3=0
   HingeName=p-m2-m3-21p   DOFType="Interacting P-M2-M3"   CurveNum=1   PointNum=4   P=-0.7   M2=0.3375   M3=0
   HingeName=p-m2-m3-21p   DOFType="Interacting P-M2-M3"   CurveNum=1   PointNum=5   P=-0.6   M2=0.45   M3=0
   HingeName=p-m2-m3-21p   DOFType="Interacting P-M2-M3"   CurveNum=1   PointNum=6   P=-0.5   M2=0.5625   M3=0
   HingeName=p-m2-m3-21p   DOFType="Interacting P-M2-M3"   CurveNum=1   PointNum=7   P=-0.4   M2=0.675   M3=0
   HingeName=p-m2-m3-21p   DOFType="Interacting P-M2-M3"   CurveNum=1   PointNum=8   P=-0.3   M2=0.7875   M3=0
   HingeName=p-m2-m3-21p   DOFType="Interacting P-M2-M3"   CurveNum=1   PointNum=9   P=-0.2   M2=0.9   M3=0
   HingeName=p-m2-m3-21p   DOFType="Interacting P-M2-M3"   CurveNum=1   PointNum=10   P=-0.1   M2=0.95   M3=0
   HingeName=p-m2-m3-21p   DOFType="Interacting P-M2-M3"   CurveNum=1   PointNum=11   P=0   M2=1   M3=0
   HingeName=p-m2-m3-21p   DOFType="Interacting P-M2-M3"   CurveNum=1   PointNum=12   P=0.1   M2=0.95   M3=0
   HingeName=p-m2-m3-21p   DOFType="Interacting P-M2-M3"   CurveNum=1   PointNum=13   P=0.2   M2=0.9   M3=0
   HingeName=p-m2-m3-21p   DOFType="Interacting P-M2-M3"   CurveNum=1   PointNum=14   P=0.3   M2=0.7875   M3=0
   HingeName=p-m2-m3-21p   DOFType="Interacting P-M2-M3"   CurveNum=1   PointNum=15   P=0.4   M2=0.675   M3=0
   HingeName=p-m2-m3-21p   DOFType="Interacting P-M2-M3"   CurveNum=1   PointNum=16   P=0.5   M2=0.5625   M3=0
   HingeName=p-m2-m3-21p   DOFType="Interacting P-M2-M3"   CurveNum=1   PointNum=17   P=0.6   M2=0.45   M3=0
   HingeName=p-m2-m3-21p   DOFType="Interacting P-M2-M3"   CurveNum=1   PointNum=18   P=0.7   M2=0.3375   M3=0
   HingeName=p-m2-m3-21p   DOFType="Interacting P-M2-M3"   CurveNum=1   PointNum=19   P=0.8   M2=0.225   M3=0
   HingeName=p-m2-m3-21p   DOFType="Interacting P-M2-M3"   CurveNum=1   PointNum=20   P=0.9   M2=0.1125   M3=0
# ... 85 like lines cut
   HingeName=p-m2-m3-7c-11p   DOFType="Interacting P-M2-M3"   CurveNum=1   PointNum=1   P=-1   M2=0   M3=0
   HingeName=p-m2-m3-7c-11p   DOFType="Interacting P-M2-M3"   CurveNum=1   PointNum=2   P=-0.8   M2=0.225   M3=0
   HingeName=p-m2-m3-7c-11p   DOFType="Interacting P-M2-M3"   CurveNum=1   PointNum=3   P=-0.6   M2=0.45   M3=0
   HingeName=p-m2-m3-7c-11p   DOFType="Interacting P-M2-M3"   CurveNum=1   PointNum=4   P=-0.4   M2=0.675   M3=0
   HingeName=p-m2-m3-7c-11p   DOFType="Interacting P-M2-M3"   CurveNum=1   PointNum=5   P=-0.2   M2=0.9   M3=0
   HingeName=p-m2-m3-7c-11p   DOFType="Interacting P-M2-M3"   CurveNum=1   PointNum=6   P=0   M2=1   M3=0
   HingeName=p-m2-m3-7c-11p   DOFType="Interacting P-M2-M3"   CurveNum=1   PointNum=7   P=0.2   M2=0.9   M3=0
   HingeName=p-m2-m3-7c-11p   DOFType="Interacting P-M2-M3"   CurveNum=1   PointNum=8   P=0.4   M2=0.675   M3=0
   HingeName=p-m2-m3-7c-11p   DOFType="Interacting P-M2-M3"   CurveNum=1   PointNum=9   P=0.6   M2=0.45   M3=0
   HingeName=p-m2-m3-7c-11p   DOFType="Interacting P-M2-M3"   CurveNum=1   PointNum=10   P=0.8   M2=0.225   M3=0
   HingeName=p-m2-m3-7c-11p   DOFType="Interacting P-M2-M3"   CurveNum=1   PointNum=11   P=1   M2=0   M3=0
   HingeName=p-m2-m3-7c-11p   DOFType="Interacting P-M2-M3"   CurveNum=2   PointNum=1   P=-1   M2=0   M3=0
   HingeName=p-m2-m3-7c-11p   DOFType="Interacting P-M2-M3"   CurveNum=2   PointNum=2   P=-0.8   M2=0.1875   M3=0.0375
   HingeName=p-m2-m3-7c-11p   DOFType="Interacting P-M2-M3"   CurveNum=2   PointNum=3   P=-0.6   M2=0.375   M3=0.075
   HingeName=p-m2-m3-7c-11p   DOFType="Interacting P-M2-M3"   CurveNum=2   PointNum=4   P=-0.4   M2=0.5625   M3=0.1125
   HingeName=p-m2-m3-7c-11p   DOFType="Interacting P-M2-M3"   CurveNum=2   PointNum=5   P=-0.2   M2=0.75   M3=0.15
   HingeName=p-m2-m3-7c-11p   DOFType="Interacting P-M2-M3"   CurveNum=2   PointNum=6   P=0   M2=0.83333   M3=0.166667
   HingeName=p-m2-m3-7c-11p   DOFType="Interacting P-M2-M3"   CurveNum=2   PointNum=7   P=0.2   M2=0.75   M3=0.15
   HingeName=p-m2-m3-7c-11p   DOFType="Interacting P-M2-M3"   CurveNum=2   PointNum=8   P=0.4   M2=0.5625   M3=0.1125
   HingeName=p-m2-m3-7c-11p   DOFType="Interacting P-M2-M3"   CurveNum=2   PointNum=9   P=0.6   M2=0.375   M3=0.075
# ... 57 like lines cut
 
TABLE:  "JOINT COORDINATES"
   Joint=0   CoordSys=GLOBAL   CoordType=Cartesian   XorR=0   Y=0   Z=0   SpecialJt=No   GUID=6c375c2c-da5e-4fe5-861c-62e3f5faf132
   Joint=1   CoordSys=GLOBAL   CoordType=Cartesian   XorR=0   Y=0   Z=3   SpecialJt=No   GUID=973274ab-2bc1-483d-9232-0df831832572
   Joint=2   CoordSys=GLOBAL   CoordType=Cartesian   XorR=2   Y=0   Z=3   SpecialJt=No   GUID=9298bfa3-3628-4dc0-b82d-6e24e2c9cbba
   Joint=3   CoordSys=GLOBAL   CoordType=Cartesian   XorR=3   Y=0   Z=3   SpecialJt=No   GUID=0265b22b-45cb-4aa6-b8e8-e77f2c7a657e
   Joint=4   CoordSys=GLOBAL   CoordType=Cartesian   XorR=3   Y=0   Z=0   SpecialJt=No   GUID=ad3f3b15-5678-4a71-a340-4f12f1e96651
   Joint=5   CoordSys=GLOBAL   CoordType=Cartesian   XorR=3   Y=3   Z=3   SpecialJt=No   GUID=74fe7dd3-8075-496f-af1b-cd90049d2e3f
   Joint=6   CoordSys=GLOBAL   CoordType=Cartesian   XorR=3   Y=5   Z=3   SpecialJt=No   GUID=0146bb86-8865-4136-9e6d-75c7f9e9b558
   Joint=7   CoordSys=GLOBAL   CoordType=Cartesian   XorR=3   Y=5   Z=0   SpecialJt=No   GUID=bb64b1f5-1339-4b87-964a-c5107ec93bb8
 
TABLE:  "JOINT LOADS - FORCE"
   Joint=1   LoadPat=DEAD   CoordSys=GLOBAL   F1=2   F2=0   F3=0   M1=0   M2=0   M3=0   GUID=16595a94-3f71-4915-99c3-afbf4980cb52
   Joint=2   LoadPat=DEAD   CoordSys=GLOBAL   F1=0   F2=0   F3=-3   M1=0   M2=0   M3=0   GUID=72825032-21d8-4db8-9ef5-1937c4dfec31
   Joint=3   LoadPat=DEAD   CoordSys=GLOBAL   F1=0   F2=4   F3=0   M1=0   M2=0   M3=0   GUID=88b20135-155e-440f-a73e-89783a4d0133
   Joint=5   LoadPat=DEAD   CoordSys=GLOBAL   F1=0   F2=0   F3=-5   M1=0   M2=0   M3=0   GUID=f18377e2-40d7-4d5a-a3b8-cc016db79a30
 
TABLE:  "JOINT PATTERN DEFINITIONS"
   Pattern=Default
 
TABLE:  "JOINT RESTRAINT ASSIGNMENTS"
   Joint=0   U1=Yes   U2=Yes   U3=Yes   R1=Yes   R2=Yes   R3=Yes
   Joint=4   U1=Yes   U2=Yes   U3=Yes   R1=Yes   R2=Yes   R3=Yes
   Joint=7   U1=Yes   U2=Yes   U3=Yes   R1=Yes   R2=Yes   R3=Yes
 
TABLE:  "LOAD CASE DEFINITIONS"
   Case=DEAD   Type=LinStatic   InitialCond=Zero   DesTypeOpt="Prog Det"   DesignType=Dead   DesActOpt="Prog Det"   DesignAct=Non-Composite   AutoType=None   RunCase=No   GUID=b9d0509f-1d36-4e6a-b3d9-f32d397f1cc9
   Case=MODAL   Type=LinModal   InitialCond=Zero   DesTypeOpt="Prog Det"   DesignType=Other   DesActOpt="Prog Det"   DesignAct=Other   AutoType=None   RunCase=No   GUID=2d1752f5-aff3-436b-abc8-55b94edc6ba8
   Case=static-elastic   Type=LinStatic   InitialCond=Zero   DesTypeOpt="Prog Det"   DesignType=Dead   DesActOpt="Prog Det"   DesignAct=Non-Composite   AutoType=None   RunCase=No   GUID=1ff47f2d-5973-49ba-8dd6-7763f281f6cf
   Case=static-inelastic   Type=NonStatic   InitialCond=Zero   DesTypeOpt="Prog Det"   DesignType=Dead   DesActOpt="Prog Det"   DesignAct=Non-Composite   AutoType=None   RunCase=Yes   GUID=a1b5f6ea-edf6-425a-a1e8-172abe5839ad
 
TABLE:  "LOAD PATTERN DEFINITIONS"
   LoadPat=DEAD   DesignType=Dead   SelfWtMult=1   GUID=496ed4c4-c393-437f-a6df-a0fab1b90652
 
TABLE:  "MASS SOURCE"
   MassSource=MSSSRC1   Elements=Yes   Masses=Yes   Loads=No   IsDefault=Yes
 
TABLE:  "MATERIAL PROPERTIES 01 - GENERAL"
   Material=4000Psi   Type=Concrete   Grade="f'c 4000 psi"   SymType=Isotropic   TempDepend=No   Color=Yellow   GUID=7c7aa1c7-9982-43b0-b2cb-96a5d80bfd55   Notes="Customary f'c 4000 psi 2023-06-25 6:58:46 PM"
   Material=A416Gr270   Type=Tendon   Grade="Grade 270"   SymType=Uniaxial   TempDepend=No   Color=Cyan   GUID=690ee147-292a-4017-bf8f-3460c2587bad   Notes="ASTM A416 Grade 270 2023-07-09 6:50:20 AM"
   Material=A615Gr60   Type=Rebar   Grade="Grade 60"   SymType=Uniaxial   TempDepend=No   Color=Red   GUID=01257555-aba3-41b8-9abb-a931bcfbf920   Notes="ASTM A615 Grade 60 2023-07-09 6:50:20 AM"
   Material=steel   Type=Steel   Grade="Grade 50"   SymType=Isotropic   TempDepend=No   Color=Magenta   Notes="ASTM A992 Grade 50 2023-06-25 6:58:46 PM"
 
TABLE:  "MATERIAL PROPERTIES 02 - BASIC MECHANICAL PROPERTIES"
   Material=4000Psi   UnitWeight=23563.1216161854   UnitMass=2402.76960558926   E1=24855578060.0518   G12=10356490858.3549   U12=0.2   A1=9.89999952793124E-06
   Material=A416Gr270   UnitWeight=76972.8639422648   UnitMass=7849.04737995992   E1=196500599851.2   A1=1.16999994421006E-05
   Material=A615Gr60   UnitWeight=76972.8639422648   UnitMass=7849.04737995992   E1=199947978795.958   A1=1.16999994421006E-05
   Material=steel   UnitWeight=0   UnitMass=0   E1=200000000000   G12=76923076923.0769   U12=0.3   A1=1.16999994421006E-05
 
TABLE:  "MATERIAL PROPERTIES 03A - STEEL DATA"
   Material=steel   Fy=344737894.475789   Fu=448159262.818526   EffFy=379211683.923368   EffFu=492975189.100378   SSCurveOpt=Simple   SSHysType=Kinematic   SHard=0.015   SMax=0.11   SRup=0.17   FinalSlope=-0.1   CoupModType="Von Mises"
 
TABLE:  "MATERIAL PROPERTIES 03B - CONCRETE DATA"
   Material=4000Psi   Fc=27579031.5580631   eFc=27579031.5580631   LtWtConc=No   SSCurveOpt=Mander   SSHysType=Takeda   SFc=0.00221914   SCap=0.005   FinalSlope=-0.1   FAngle=0   DAngle=0   CoupModType="Modified Darwin-Pecknold"
 
TABLE:  "MATERIAL PROPERTIES 03E - REBAR DATA"
   Material=A615Gr60   Fy=413685473.370947   Fu=620528210.05642   EffFy=455054020.708041   EffFu=682581031.062062   SSCurveOpt=Simple   SSHysType=Kinematic   SHard=0.01   SCap=0.09   FinalSlope=-0.1   UseCTDef=No   CoupModType="Von Mises"
 
TABLE:  "MATERIAL PROPERTIES 03F - TENDON DATA"
   Material=A416Gr270   Fy=1689905158.72032   Fu=1861584630.16926   SSCurveOpt="270 ksi"   SSHysType=Kinematic   FinalSlope=-0.1   CoupModType="Von Mises"
 
TABLE:  "MATERIAL PROPERTIES 03J - COUPLED NONLINEAR VON MISES DATA"
   Material=A416Gr270   YieldStress=1689905158.72032   LinIsoHard=No   LinKinHard=No   NLIsoSaHard=No
   Material=A615Gr60   YieldStress=455054020.708041   LinIsoHard=No   LinKinHard=No   NLIsoSaHard=No
   Material=steel   YieldStress=379211683.923368   LinIsoHard=No   LinKinHard=No   NLIsoSaHard=No
 
TABLE:  "MATERIAL PROPERTIES 06 - DAMPING PARAMETERS"
   Material=4000Psi   ModalRatio=0   VisMass=0   VisStiff=0   HysMass=0   HysStiff=0
   Material=A416Gr270   ModalRatio=0   VisMass=0   VisStiff=0   HysMass=0   HysStiff=0
   Material=A615Gr60   ModalRatio=0   VisMass=0   VisStiff=0   HysMass=0   HysStiff=0
   Material=steel   ModalRatio=0   VisMass=0   VisStiff=0   HysMass=0   HysStiff=0
 
TABLE:  "MATERIAL PROPERTIES 09 - ACCEPTANCE CRITERIA"
   Material=4000Psi   IOTens=0.01   LSTens=0.02   CPTens=0.05   IOComp=-0.003   LSComp=-0.006   CPComp=-0.015   IgnoreTens=Yes
   Material=A416Gr270   IOTens=0.015   LSTens=0.023   CPTens=0.03   IOComp=-0.015   LSComp=-0.023   CPComp=-0.03
   Material=A615Gr60   IOTens=0.01   LSTens=0.02   CPTens=0.05   IOComp=-0.005   LSComp=-0.01   CPComp=-0.02
   Material=steel   IOTens=0.01   LSTens=0.02   CPTens=0.05   IOComp=-0.005   LSComp=-0.01   CPComp=-0.02
 
TABLE:  "OPTIONS - COLORS - DISPLAY"
   DeviceType=Screen   Points=Blue   LinesFrame=Blue   LinesFrmDL=Blue   LinesCable=Green   LinesTendon=Green   SpringLinks=Green   Restraints=Green   Releases=Green   Axes=Cyan   Text=Black   ShadowLines=Gray8Dark   GuideLines=Gray8Dark _
        Highlight=Red   Selection=10504778   AreaFillBot=Red   AreaFillTop=16744703   AreaFillSd=Red   AreaEdge=DarkRed   SolidF1=Red   SolidF2=Blue   SolidF3=Green   SolidF4=Yellow   SolidF5=White   SolidF6=Cyan   SolidEdge=DarkRed _
        Floor=Gray4   Background=White   BGLowLeft=White   BGLowRight=White   BGUpRight=White   Darkness=0.5
   DeviceType=Printer   Points=Gray8Dark   LinesFrame=Black   LinesFrmDL=Gray4   LinesCable=Black   LinesTendon=Black   SpringLinks=Gray8Dark   Restraints=Gray8Dark   Releases=Gray4   Axes=Black   Text=Black   ShadowLines=Gray4 _
        GuideLines=Gray4   Highlight=Black   Selection=Black   AreaFillBot=Gray4   AreaFillTop=Gray8Dark   AreaFillSd=Gray4   AreaEdge=Black   SolidF1=Gray1Light   SolidF2=Gray2   SolidF3=Gray3   SolidF4=Gray4   SolidF5=Gray5 _
        SolidF6=Gray6   SolidEdge=Black   Floor=Gray4   Background=White   BGLowLeft=White   BGLowRight=White   BGUpRight=White   Darkness=0.5
   DeviceType="Color Printer"   Points=Blue   LinesFrame=Blue   LinesFrmDL=Blue   LinesCable=Green   LinesTendon=Green   SpringLinks=Green   Restraints=Green   Releases=Green   Axes=Cyan   Text=Black   ShadowLines=Gray8Dark _
        GuideLines=Gray8Dark   Highlight=Red   Selection=10504778   AreaFillBot=Red   AreaFillTop=16744703   AreaFillSd=Red   AreaEdge=DarkRed   SolidF1=Red   SolidF2=Blue   SolidF3=Green   SolidF4=Yellow   SolidF5=White   SolidF6=Cyan _
        SolidEdge=DarkRed   Floor=Gray4   Background=White   BGLowLeft=White   BGLowRight=White   BGUpRight=White   Darkness=0.5
 
TABLE:  "OPTIONS - COLORS - OUTPUT"
   DeviceType=Screen   Contour1=13107400   Contour2=6553828   Contour3=Red   Contour4=16639   Contour5=Orange   Contour6=43775   Contour7=54527   Contour8=Yellow   Contour9=65408   Contour10=Green   Contour11=8453888   Contour12=Cyan _
        Contour13=16755200   Contour14=16733440   Contour15=Blue   Transpare=0   Ratio1=Cyan   Ratio2=Green   Ratio3=Yellow   Ratio4=Orange   Ratio5=Red   RatioNotD=Gray4   RatioNotC=Red   RatioVal1=0.5   RatioVal2=0.7   RatioVal3=0.9 _
        RatioVal4=1   DFillPos=Blue   DFillNeg=Red   DFillRPos=Green   DFillRNeg=Green
   DeviceType=Printer   Contour1=Black   Contour2=3158064   Contour3=4210752   Contour4=5263440   Contour5=6316128   Contour6=7368816   Contour7=Gray8Dark   Contour8=Gray7   Contour9=Gray6   Contour10=Gray5   Contour11=Gray4 _
        Contour12=Gray3   Contour13=Gray2   Contour14=Gray1Light   Contour15=White   Transpare=0   Ratio1=Gray2   Ratio2=Gray4   Ratio3=Gray8Dark   Ratio4=4210752   Ratio5=Black   RatioNotD=Gray4   RatioNotC=Black   RatioVal1=0.5 _
        RatioVal2=0.7   RatioVal3=0.9   RatioVal4=1   DFillPos=Gray8Dark   DFillNeg=Gray8Dark   DFillRPos=4210752   DFillRNeg=4210752
   DeviceType="Color Printer"   Contour1=13107400   Contour2=6553828   Contour3=Red   Contour4=16639   Contour5=Orange   Contour6=43775   Contour7=54527   Contour8=Yellow   Contour9=65408   Contour10=Green   Contour11=8453888 _
        Contour12=Cyan   Contour13=16755200   Contour14=16733440   Contour15=Blue   Transpare=0   Ratio1=Cyan   Ratio2=Green   Ratio3=Yellow   Ratio4=Orange   Ratio5=Red   RatioNotD=Gray4   RatioNotC=Red   RatioVal1=0.5   RatioVal2=0.7 _
        RatioVal3=0.9   RatioVal4=1   DFillPos=Blue   DFillNeg=Red   DFillRPos=Green   DFillRNeg=Green
 
TABLE:  "OVERWRITES - STEEL DESIGN - AISC 360-16"
   Frame=0   DesignSect="Program Determined"   FrameType="Program Determined"   Fy=0   RLLF=0   AreaRatio=0   XLMajor=0   XLMinor=0   XLLTB=0   K1Major=0   K1Minor=0   K2Major=0   K2Minor=0   KLTB=0   CmMajor=0   CmMinor=0   Cb=0 _
        B1Major=0   B1Minor=0   B2Major=0   B2Minor=0   HSSReduceT="Program Determined"   HSSWelding="Program Determined"   Omega0=0   Ry=0   Pnc=0   Pnt=0   Mn3=0   Mn2=0   Vn2=0   Vn3=0   CheckDefl="Program Determined" _
        DeflType="Program Determined"   DLRat=0   SDLAndLLRat=0   LLRat=0   TotalRat=0   NetRat=0   DLAbs=0   SDLAndLLAbs=0   LLAbs=0   TotalAbs=0   NetAbs=0   SpecCamber=0   DCLimit=0
   Frame=1   DesignSect="Program Determined"   FrameType="Program Determined"   Fy=0   RLLF=0   AreaRatio=0   XLMajor=0   XLMinor=0   XLLTB=0   K1Major=0   K1Minor=0   K2Major=0   K2Minor=0   KLTB=0   CmMajor=0   CmMinor=0   Cb=0 _
        B1Major=0   B1Minor=0   B2Major=0   B2Minor=0   HSSReduceT="Program Determined"   HSSWelding="Program Determined"   Omega0=0   Ry=0   Pnc=0   Pnt=0   Mn3=0   Mn2=0   Vn2=0   Vn3=0   CheckDefl="Program Determined" _
        DeflType="Program Determined"   DLRat=0   SDLAndLLRat=0   LLRat=0   TotalRat=0   NetRat=0   DLAbs=0   SDLAndLLAbs=0   LLAbs=0   TotalAbs=0   NetAbs=0   SpecCamber=0   DCLimit=0
   Frame=2   DesignSect="Program Determined"   FrameType="Program Determined"   Fy=0   RLLF=0   AreaRatio=0   XLMajor=0   XLMinor=0   XLLTB=0   K1Major=0   K1Minor=0   K2Major=0   K2Minor=0   KLTB=0   CmMajor=0   CmMinor=0   Cb=0 _
        B1Major=0   B1Minor=0   B2Major=0   B2Minor=0   HSSReduceT="Program Determined"   HSSWelding="Program Determined"   Omega0=0   Ry=0   Pnc=0   Pnt=0   Mn3=0   Mn2=0   Vn2=0   Vn3=0   CheckDefl="Program Determined" _
        DeflType="Program Determined"   DLRat=0   SDLAndLLRat=0   LLRat=0   TotalRat=0   NetRat=0   DLAbs=0   SDLAndLLAbs=0   LLAbs=0   TotalAbs=0   NetAbs=0   SpecCamber=0   DCLimit=0
   Frame=3   DesignSect="Program Determined"   FrameType="Program Determined"   Fy=0   RLLF=0   AreaRatio=0   XLMajor=0   XLMinor=0   XLLTB=0   K1Major=0   K1Minor=0   K2Major=0   K2Minor=0   KLTB=0   CmMajor=0   CmMinor=0   Cb=0 _
        B1Major=0   B1Minor=0   B2Major=0   B2Minor=0   HSSReduceT="Program Determined"   HSSWelding="Program Determined"   Omega0=0   Ry=0   Pnc=0   Pnt=0   Mn3=0   Mn2=0   Vn2=0   Vn3=0   CheckDefl="Program Determined" _
        DeflType="Program Determined"   DLRat=0   SDLAndLLRat=0   LLRat=0   TotalRat=0   NetRat=0   DLAbs=0   SDLAndLLAbs=0   LLAbs=0   TotalAbs=0   NetAbs=0   SpecCamber=0   DCLimit=0
   Frame=4   DesignSect="Program Determined"   FrameType="Program Determined"   Fy=0   RLLF=0   AreaRatio=0   XLMajor=0   XLMinor=0   XLLTB=0   K1Major=0   K1Minor=0   K2Major=0   K2Minor=0   KLTB=0   CmMajor=0   CmMinor=0   Cb=0 _
        B1Major=0   B1Minor=0   B2Major=0   B2Minor=0   HSSReduceT="Program Determined"   HSSWelding="Program Determined"   Omega0=0   Ry=0   Pnc=0   Pnt=0   Mn3=0   Mn2=0   Vn2=0   Vn3=0   CheckDefl="Program Determined" _
        DeflType="Program Determined"   DLRat=0   SDLAndLLRat=0   LLRat=0   TotalRat=0   NetRat=0   DLAbs=0   SDLAndLLAbs=0   LLAbs=0   TotalAbs=0   NetAbs=0   SpecCamber=0   DCLimit=0
   Frame=5   DesignSect="Program Determined"   FrameType="Program Determined"   Fy=0   RLLF=0   AreaRatio=0   XLMajor=0   XLMinor=0   XLLTB=0   K1Major=0   K1Minor=0   K2Major=0   K2Minor=0   KLTB=0   CmMajor=0   CmMinor=0   Cb=0 _
        B1Major=0   B1Minor=0   B2Major=0   B2Minor=0   HSSReduceT="Program Determined"   HSSWelding="Program Determined"   Omega0=0   Ry=0   Pnc=0   Pnt=0   Mn3=0   Mn2=0   Vn2=0   Vn3=0   CheckDefl="Program Determined" _
        DeflType="Program Determined"   DLRat=0   SDLAndLLRat=0   LLRat=0   TotalRat=0   NetRat=0   DLAbs=0   SDLAndLLAbs=0   LLAbs=0   TotalAbs=0   NetAbs=0   SpecCamber=0   DCLimit=0
   Frame=6   DesignSect="Program Determined"   FrameType="Program Determined"   Fy=0   RLLF=0   AreaRatio=0   XLMajor=0   XLMinor=0   XLLTB=0   K1Major=0   K1Minor=0   K2Major=0   K2Minor=0   KLTB=0   CmMajor=0   CmMinor=0   Cb=0 _
        B1Major=0   B1Minor=0   B2Major=0   B2Minor=0   HSSReduceT="Program Determined"   HSSWelding="Program Determined"   Omega0=0   Ry=0   Pnc=0   Pnt=0   Mn3=0   Mn2=0   Vn2=0   Vn3=0   CheckDefl="Program Determined" _
        DeflType="Program Determined"   DLRat=0   SDLAndLLRat=0   LLRat=0   TotalRat=0   NetRat=0   DLAbs=0   SDLAndLLAbs=0   LLAbs=0   TotalAbs=0   NetAbs=0   SpecCamber=0   DCLimit=0
 
TABLE:  "PREFERENCES - ALUMINUM DESIGN - AA 2015"
   THDesign=Envelopes   SRatioLimit=1   Provision=LRFD   LatFact=1.33333333333333   UseLatFact=No   Bridge=No   PhiTy=0.9   PhiTr=0.75   PhiC=0.9   PhiBo=0.9   PhiBr=0.75   PhiVo=0.9   PhiVr=0.75
 
TABLE:  "PREFERENCES - COLD FORMED DESIGN - AISI-16"
   THDesign=Envelopes   FrameType="Braced Frame"   SRatioLimit=1   SOMethod="General 2nd Order"   Provision=LRFD   LatFact=1.33333333333333   UseLatFact=No   PhiTy=0.9   PhiTr=0.75   PhiC=0.85   PhiB=0.9   PhiBPipe=0.95   PhiV=0.95
 
TABLE:  "PREFERENCES - CONCRETE DESIGN - ACI 318-19"
   THDesign=Envelopes   NumCurves=24   NumPoints=11   MinEccen=Yes   BCCDesign=Yes   IgnoreBPu=Yes   CTorsion=Yes   PatLLF=0.75   UFLimit=0.95   SeisCat=D   Rho=1   Sds=0.5   PhiT=0.9   PhiCTied=0.65   PhiCSpiral=0.75   PhiV=0.75 _
        PhiVSeismic=0.6   PhiVJoint=0.85   TanTheta=1
 
TABLE:  "PREFERENCES - CONCRETE SHELL DESIGN - EUROCODE 2-2004"
   Country="CEN Default"   GammaS=1.15   GammaC=1.5   AlphaCC=1   AlphaCT=1   CrackCond="Program Determined"   ShrDesMet="Method 1"   CotTheta=1
 
TABLE:  "PREFERENCES - DIMENSIONAL"
   MergeTol=0.001   FineGrid=0.25   Nudge=0.25   SelectTol=3   SnapTol=12   SLineThick=2   PLineThick=4   MaxFont=8   MinFont=3   AutoZoom=10   ShrinkFact=70   TextFileLen=240
 
TABLE:  "PREFERENCES - STEEL DESIGN - AISC 360-16"
   THDesign=Envelopes   FrameType=SMF   PatLLF=0.75   SRatioLimit=0.95   MaxIter=1   SDC=D   SeisCode=No   SeisLoad=No   ImpFactor=1   SystemRho=1   SystemSds=0.5   SystemR=8   SystemCd=5.5   Omega0=3   Provision=LRFD _
        AMethod="Direct Analysis"   SOMethod="General 2nd Order"   SRMethod="Tau-b Fixed"   NLCoeff=0.002   PhiB=0.9   PhiC=0.9   PhiTY=0.9   PhiTF=0.75   PhiV=0.9   PhiVRolledI=1   PhiVT=0.9   PlugWeld=Yes   HSSWelding=ERW   HSSReduceT=No _
        CheckDefl=No   DLRat=120   SDLAndLLRat=120   LLRat=360   TotalRat=240   NetRat=240
 
TABLE:  "PROGRAM CONTROL"
   ProgramName=SAP2000   Version=24.1.0   CurrUnits="N, m, C"   SteelCode="AISC 360-16"   ConcCode="ACI 318-19"   AlumCode="AA 2015"   ColdCode=AISI-16   RegenHinge=Yes
 
TABLE:  "PROJECT INFORMATION"
   Item="Company Name"
   Item="Client Name"
   Item="Project Name"
   Item="Project Number"
   Item="Model Name"
   Item="Model Description"
   Item="Revision Number"
   Item="Frame Type"
   Item=Engineer
   Item=Checker
   Item=Supervisor
   Item="Issue Code"
   Item="Design Code"
 
TABLE:  "REBAR SIZES"
   RebarID=#2   Area=3.2258E-05   Diameter=0.00635
   RebarID=#3   Area=7.09675996154547E-05   Diameter=0.009525
   RebarID=#4   Area=0.000129032001922727   Diameter=0.0127
   RebarID=#5   Area=0.000199999601538181   Diameter=0.015875
   RebarID=#6   Area=0.000283870398461819   Diameter=0.01905
   RebarID=#7   Area=0.000387096015381813   Diameter=0.022225
   RebarID=#8   Area=0.000509676413843632   Diameter=0.0254
   RebarID=#9   Area=0.00064516   Diameter=0.0286512005329132
   RebarID=#10   Area=0.00081935318769455   Diameter=0.0322579995155334
   RebarID=#11   Area=0.00100644956308365   Diameter=0.0358139991521835
   RebarID=#14   Area=0.00145161   Diameter=0.0430021989583969
   RebarID=#18   Area=0.00258064   Diameter=0.0573277992248535
   RebarID=10M   Area=0.000100000002655387   Diameter=0.011300000667572
   RebarID=15M   Area=0.000200000005310774   Diameter=0.0159999999403954
   RebarID=20M   Area=0.000300000017579794   Diameter=0.0194999997854233
   RebarID=25M   Area=0.000500000022890568   Diameter=0.0252000016093254
   RebarID=30M   Area=0.000700000008974075   Diameter=0.0299000008821487
   RebarID=35M   Area=0.00100000004578114   Diameter=0.0357000011444092
   RebarID=45M   Area=0.00150000010712624   Diameter=0.0437000003576279
   RebarID=55M   Area=0.00250000007599831   Diameter=0.0564000033855438
   RebarID=6d   Area=2.83000004149973E-05   Diameter=0.006000000166893
   RebarID=8d   Area=5.02999995571375E-05   Diameter=0.00799999997019768
   RebarID=10d   Area=7.85000013634562E-05   Diameter=0.00999999977350235
   RebarID=12d   Area=0.000113000009249449   Diameter=0.012000000333786
   RebarID=14d   Area=0.000154000010818839   Diameter=0.0140000008940697
   RebarID=16d   Area=0.000201000015431643   Diameter=0.0159999999403954
   RebarID=20d   Area=0.000314000005453825   Diameter=0.0199999995470047
   RebarID=25d   Area=0.000491000008711815   Diameter=0.0250000001907349
   RebarID=26d   Area=0.000531000029001236   Diameter=0.0259999997138977
   RebarID=28d   Area=0.000616000043275356   Diameter=0.0280000017881393
   RebarID=N12   Area=0.000113000009249449   Diameter=0.012000000333786
   RebarID=N16   Area=0.000201000015431643   Diameter=0.0159999999403954
   RebarID=N20   Area=0.000314000005453825   Diameter=0.0199999995470047
   RebarID=N24   Area=0.000452000036997795   Diameter=0.024000000667572
   RebarID=N28   Area=0.000616000043275356   Diameter=0.0280000017881393
   RebarID=N32   Area=0.00080400006172657   Diameter=0.0319999998807907
   RebarID=N36   Area=0.00102000001747131   Diameter=0.036000001001358
 
TABLE:  "SOLID PROPERTY DEFINITIONS"
   SolidProp=Solid1   Material=4000Psi   MatAngleA=0   MatAngleB=0   MatAngleC=0   InComp=Yes   Color=Gray8Dark
 
END TABLE DATA
