File C:\Users\Hamed\projects\thesis\model-comparisons\sap-v24-models\2story-dynamic-inelastic\2story-dynamic-inelastic.$2k was saved on m/d/yy at h:mm:ss
 
TABLE:  "ACTIVE DEGREES OF FREEDOM"
   UX=Yes   UY=No   UZ=Yes   RX=No   RY=Yes   RZ=No
 
TABLE:  "ANALYSIS OPTIONS"
   Solver=Advanced   SolverProc=Auto   Force32Bit=No   StiffCase=None   GeomMod=None   HingeOpt="In Elements"   NumAThreads=0   MaxFileSize=0   NumDThreads=0   NumRThreads=0   UseMMFiles="Program Determined"   AllowDiff=No
 
TABLE:  "AUTO WAVE 3 - WAVE CHARACTERISTICS - GENERAL"
   WaveChar=Default   WaveType="From Theory"   KinFactor=1   SWaterDepth=45   WaveHeight=18   WavePeriod=12   WaveTheory=Linear
 
TABLE:  "CASE - DIRECT HISTORY 1 - GENERAL"
   Case=nonlinear-0.002   OutSteps=500   StepSize=0.002
 
TABLE:  "CASE - DIRECT HISTORY 2 - LOAD ASSIGNMENTS"
   Case=nonlinear-0.002   LoadType="Load pattern"   LoadName=point   Function=th-0.002   LoadSF=1   TimeFactor=1   ArrivalTime=0
 
TABLE:  "CASE - DIRECT HISTORY 4 - INTEGRATION PARAMETERS"
   Case=nonlinear-0.002   IntMethod=HilberHughesTaylor   Gamma=0.5   Beta=0.25   Alpha=0
 
TABLE:  "CASE - DIRECT HISTORY 5 - NONLINEAR PARAMETERS"
   Case=nonlinear-0.002   GeoNonLin=None   SolScheme="Iterative Only"   DTMax=0   DTMin=0   MaxIterCS=10   MaxIterNR=40   ItConvTol=0.0001   UseLineSrch=Yes   LSPerIter=20   LSTol=0.1   LSStepFact=1.618
 
TABLE:  "CASE - MODAL 1 - GENERAL"
   Case=MODAL   ModeType=Eigen   MaxNumModes=12   MinNumModes=1   EigenShift=0   EigenCutoff=0   EigenTol=1E-09   AutoShift=Yes
 
TABLE:  "CASE - STATIC 1 - LOAD ASSIGNMENTS"
   Case=DEAD   LoadType="Load pattern"   LoadName=DEAD   LoadSF=1
   Case=point   LoadType="Load pattern"   LoadName=point   LoadSF=1
 
TABLE:  "CONNECTIVITY - FRAME"
   Frame=0   JointI=0   JointJ=3   IsCurved=No   GUID=6fcdb155-6d61-4c99-8f63-55c04b581975
   Frame=1   JointI=1   JointJ=4   IsCurved=No   GUID=ed80413f-c581-419b-8d52-0a6ea2b1c2c4
   Frame=2   JointI=2   JointJ=6   IsCurved=No   GUID=92e34812-9604-4817-95c0-2ba51494faa3
   Frame=3   JointI=3   JointJ=4   IsCurved=No   GUID=973f56bd-c146-408a-a912-59c622cdb246
   Frame=4   JointI=4   JointJ=5   IsCurved=No   GUID=b77b1f10-ed7c-4306-a3f0-fddf3a1a8205
   Frame=5   JointI=5   JointJ=6   IsCurved=No   GUID=a0bb13ec-6a8e-406a-beac-ec8a5652b8e9
   Frame=6   JointI=3   JointJ=7   IsCurved=No   GUID=46fca216-3868-44a1-9526-d7e2547463b6
   Frame=7   JointI=4   JointJ=8   IsCurved=No   GUID=ff3c6678-d724-45e3-a39e-70431709a0f9
   Frame=8   JointI=6   JointJ=10   IsCurved=No   GUID=4df609fe-d6a6-4a94-8bea-f161da2086e1
   Frame=9   JointI=7   JointJ=8   IsCurved=No   GUID=0bd92aee-917f-4aae-b8c6-4462c02fb1f7
   Frame=10   JointI=8   JointJ=9   IsCurved=No   GUID=9eec69be-6f56-437d-bc72-d4a2c689b74e
   Frame=11   JointI=9   JointJ=10   IsCurved=No   GUID=73494c22-23d3-4010-b3ce-2e9c30d4c711
 
TABLE:  "COORDINATE SYSTEMS"
   Name=GLOBAL   Type=Cartesian   X=0   Y=0   Z=0   AboutZ=0   AboutY=0   AboutX=0
 
TABLE:  "DATABASE DOCUMENTATION"
 
TABLE:  "DATABASE FORMAT TYPES"
   UnitsCurr=Yes   OverrideE=No
 
TABLE:  "FRAME AUTO MESH ASSIGNMENTS"
   Frame=0   AutoMesh=Yes   AtJoints=Yes   AtFrames=No   NumSegments=0   MaxLength=0   MaxDegrees=0
   Frame=1   AutoMesh=Yes   AtJoints=Yes   AtFrames=No   NumSegments=0   MaxLength=0   MaxDegrees=0
   Frame=2   AutoMesh=Yes   AtJoints=Yes   AtFrames=No   NumSegments=0   MaxLength=0   MaxDegrees=0
   Frame=3   AutoMesh=Yes   AtJoints=Yes   AtFrames=No   NumSegments=0   MaxLength=0   MaxDegrees=0
   Frame=4   AutoMesh=Yes   AtJoints=Yes   AtFrames=No   NumSegments=0   MaxLength=0   MaxDegrees=0
   Frame=5   AutoMesh=Yes   AtJoints=Yes   AtFrames=No   NumSegments=0   MaxLength=0   MaxDegrees=0
   Frame=6   AutoMesh=Yes   AtJoints=Yes   AtFrames=No   NumSegments=0   MaxLength=0   MaxDegrees=0
   Frame=7   AutoMesh=Yes   AtJoints=Yes   AtFrames=No   NumSegments=0   MaxLength=0   MaxDegrees=0
   Frame=8   AutoMesh=Yes   AtJoints=Yes   AtFrames=No   NumSegments=0   MaxLength=0   MaxDegrees=0
   Frame=9   AutoMesh=Yes   AtJoints=Yes   AtFrames=No   NumSegments=0   MaxLength=0   MaxDegrees=0
   Frame=10   AutoMesh=Yes   AtJoints=Yes   AtFrames=No   NumSegments=0   MaxLength=0   MaxDegrees=0
   Frame=11   AutoMesh=Yes   AtJoints=Yes   AtFrames=No   NumSegments=0   MaxLength=0   MaxDegrees=0
 
TABLE:  "FRAME DESIGN PROCEDURES"
   Frame=0   DesignProc="From Material"
   Frame=1   DesignProc="From Material"
   Frame=2   DesignProc="From Material"
   Frame=3   DesignProc="From Material"
   Frame=4   DesignProc="From Material"
   Frame=5   DesignProc="From Material"
   Frame=6   DesignProc="From Material"
   Frame=7   DesignProc="From Material"
   Frame=8   DesignProc="From Material"
   Frame=9   DesignProc="From Material"
   Frame=10   DesignProc="From Material"
   Frame=11   DesignProc="From Material"
 
TABLE:  "FRAME HINGE ASSIGNS 02 - USER DEFINED PROPERTIES"
   Frame=0   AssignProp=hinge-pm   DistType=RelDist   RelDist=0
   Frame=0   AssignProp=hinge-pm   DistType=RelDist   RelDist=1
   Frame=1   AssignProp=hinge-pm   DistType=RelDist   RelDist=0
   Frame=1   AssignProp=hinge-pm   DistType=RelDist   RelDist=1
   Frame=2   AssignProp=hinge-pm   DistType=RelDist   RelDist=0
   Frame=2   AssignProp=hinge-pm   DistType=RelDist   RelDist=1
   Frame=3   AssignProp=hinge-pm   DistType=RelDist   RelDist=0
   Frame=3   AssignProp=hinge-pm   DistType=RelDist   RelDist=1
   Frame=4   AssignProp=hinge-pm   DistType=RelDist   RelDist=0
   Frame=4   AssignProp=hinge-pm   DistType=RelDist   RelDist=1
   Frame=5   AssignProp=hinge-pm   DistType=RelDist   RelDist=0
   Frame=5   AssignProp=hinge-pm   DistType=RelDist   RelDist=1
   Frame=6   AssignProp=hinge-pm   DistType=RelDist   RelDist=0
   Frame=6   AssignProp=hinge-pm   DistType=RelDist   RelDist=1
   Frame=7   AssignProp=hinge-pm   DistType=RelDist   RelDist=0
   Frame=7   AssignProp=hinge-pm   DistType=RelDist   RelDist=1
   Frame=8   AssignProp=hinge-pm   DistType=RelDist   RelDist=0
   Frame=8   AssignProp=hinge-pm   DistType=RelDist   RelDist=1
   Frame=9   AssignProp=hinge-pm   DistType=RelDist   RelDist=0
   Frame=9   AssignProp=hinge-pm   DistType=RelDist   RelDist=1
# ... 4 like lines cut
 
TABLE:  "FRAME HINGE ASSIGNS 09 - HINGE OVERWRITES"
   Frame=0   AutoDivide=No   NoLoadDrop=No   LimNegStiff=0.1
   Frame=1   AutoDivide=No   NoLoadDrop=No   LimNegStiff=0.1
   Frame=2   AutoDivide=No   NoLoadDrop=No   LimNegStiff=0.1
   Frame=3   AutoDivide=No   NoLoadDrop=No   LimNegStiff=0.1
   Frame=4   AutoDivide=No   NoLoadDrop=No   LimNegStiff=0.1
   Frame=5   AutoDivide=No   NoLoadDrop=No   LimNegStiff=0.1
   Frame=6   AutoDivide=No   NoLoadDrop=No   LimNegStiff=0.1
   Frame=7   AutoDivide=No   NoLoadDrop=No   LimNegStiff=0.1
   Frame=8   AutoDivide=No   NoLoadDrop=No   LimNegStiff=0.1
   Frame=9   AutoDivide=No   NoLoadDrop=No   LimNegStiff=0.1
   Frame=10   AutoDivide=No   NoLoadDrop=No   LimNegStiff=0.1
   Frame=11   AutoDivide=No   NoLoadDrop=No   LimNegStiff=0.1
 
TABLE:  "FRAME LOADS - DISTRIBUTED"
   Frame=3   LoadPat=DEAD   CoordSys=GLOBAL   Type=Force   Dir=Gravity   DistType=RelDist   RelDistA=0   RelDistB=1   AbsDistA=0   AbsDistB=5   FOverLA=32700   FOverLB=32700   GUID=100a2c40-5a43-482d-b041-071245f5a3cf
   Frame=4   LoadPat=DEAD   CoordSys=GLOBAL   Type=Force   Dir=Gravity   DistType=RelDist   RelDistA=0   RelDistB=1   AbsDistA=0   AbsDistB=3   FOverLA=32700   FOverLB=32700   GUID=adb43969-5fe5-49dd-a07c-bc92752abdcd
   Frame=5   LoadPat=DEAD   CoordSys=GLOBAL   Type=Force   Dir=Gravity   DistType=RelDist   RelDistA=0   RelDistB=1   AbsDistA=0   AbsDistB=2   FOverLA=32700   FOverLB=32700   GUID=3873ac44-934d-4fb1-8f93-61ecd0b2122d
   Frame=9   LoadPat=DEAD   CoordSys=GLOBAL   Type=Force   Dir=Gravity   DistType=RelDist   RelDistA=0   RelDistB=1   AbsDistA=0   AbsDistB=5   FOverLA=32700   FOverLB=32700   GUID=b6544fd8-497f-4ce1-80a4-5ede47e76ece
   Frame=10   LoadPat=DEAD   CoordSys=GLOBAL   Type=Force   Dir=Gravity   DistType=RelDist   RelDistA=0   RelDistB=1   AbsDistA=0   AbsDistB=3   FOverLA=32700   FOverLB=32700   GUID=ebcc8c4d-de01-4fa0-9696-3808b56e5c6c
   Frame=11   LoadPat=DEAD   CoordSys=GLOBAL   Type=Force   Dir=Gravity   DistType=RelDist   RelDistA=0   RelDistB=1   AbsDistA=0   AbsDistB=2   FOverLA=32700   FOverLB=32700   GUID=393bc0f0-0fe4-4233-9216-38e4eb8e55c0
 
TABLE:  "FRAME LOAD TRANSFER OPTIONS"
   Frame=0   Transfer=Yes
   Frame=1   Transfer=Yes
   Frame=2   Transfer=Yes
   Frame=3   Transfer=Yes
   Frame=4   Transfer=Yes
   Frame=5   Transfer=Yes
   Frame=6   Transfer=Yes
   Frame=7   Transfer=Yes
   Frame=8   Transfer=Yes
   Frame=9   Transfer=Yes
   Frame=10   Transfer=Yes
   Frame=11   Transfer=Yes
 
TABLE:  "FRAME OUTPUT STATION ASSIGNMENTS"
   Frame=0   StationType=MinNumSta   MinNumSta=3   AddAtElmInt=Yes   AddAtPtLoad=Yes
   Frame=1   StationType=MinNumSta   MinNumSta=3   AddAtElmInt=Yes   AddAtPtLoad=Yes
   Frame=2   StationType=MinNumSta   MinNumSta=3   AddAtElmInt=Yes   AddAtPtLoad=Yes
   Frame=3   StationType=MaxStaSpcg   MaxStaSpcg=0.5   AddAtElmInt=Yes   AddAtPtLoad=Yes
   Frame=4   StationType=MaxStaSpcg   MaxStaSpcg=0.5   AddAtElmInt=Yes   AddAtPtLoad=Yes
   Frame=5   StationType=MaxStaSpcg   MaxStaSpcg=0.5   AddAtElmInt=Yes   AddAtPtLoad=Yes
   Frame=6   StationType=MinNumSta   MinNumSta=3   AddAtElmInt=Yes   AddAtPtLoad=Yes
   Frame=7   StationType=MinNumSta   MinNumSta=3   AddAtElmInt=Yes   AddAtPtLoad=Yes
   Frame=8   StationType=MinNumSta   MinNumSta=3   AddAtElmInt=Yes   AddAtPtLoad=Yes
   Frame=9   StationType=MaxStaSpcg   MaxStaSpcg=0.5   AddAtElmInt=Yes   AddAtPtLoad=Yes
   Frame=10   StationType=MaxStaSpcg   MaxStaSpcg=0.5   AddAtElmInt=Yes   AddAtPtLoad=Yes
   Frame=11   StationType=MaxStaSpcg   MaxStaSpcg=0.5   AddAtElmInt=Yes   AddAtPtLoad=Yes
 
TABLE:  "FRAME SECTION ASSIGNMENTS"
   Frame=0   AutoSelect=N.A.   AnalSect=rect   MatProp=Default
   Frame=1   AutoSelect=N.A.   AnalSect=rect   MatProp=Default
   Frame=2   AutoSelect=N.A.   AnalSect=rect   MatProp=Default
   Frame=3   AutoSelect=N.A.   AnalSect=rect   MatProp=Default
   Frame=4   AutoSelect=N.A.   AnalSect=rect   MatProp=Default
   Frame=5   AutoSelect=N.A.   AnalSect=rect   MatProp=Default
   Frame=6   AutoSelect=N.A.   AnalSect=rect   MatProp=Default
   Frame=7   AutoSelect=N.A.   AnalSect=rect   MatProp=Default
   Frame=8   AutoSelect=N.A.   AnalSect=rect   MatProp=Default
   Frame=9   AutoSelect=N.A.   AnalSect=rect   MatProp=Default
   Frame=10   AutoSelect=N.A.   AnalSect=rect   MatProp=Default
   Frame=11   AutoSelect=N.A.   AnalSect=rect   MatProp=Default
 
TABLE:  "FRAME SECTION PROPERTIES 01 - GENERAL"
   SectionName=rect   Material=steel   Shape=Rectangular   t3=0.2   t2=0.04   Area=0.008   TorsConst=3.72913834666667E-06   I33=2.66666666666667E-05   I22=1.06666666666667E-06   I23=0   AS2=0.00666666666666667   AS3=0.00666666666666667 _
        S33Top=0.000266666666666667   S33Bot=0.000266666666666667   S22Left=5.33333333333333E-05   S22Right=5.33333333333333E-05   Z33=0.0004   Z22=8E-05   R33=0.0577350269189626   R22=0.0115470053837925   CGOffset3=0   CGOffset2=0 _
        EccV2=0   EccV3=0   Cw=0   Color=Blue   FromFile=No   AMod=1   A2Mod=0   A3Mod=0   JMod=1   I2Mod=1   I3Mod=1   MMod=1   WMod=1   Notes="Added 6/19/2023 4:05:59 PM"
 
TABLE:  "FRAME SECTION PROPERTIES 13 - TIME DEPENDENT"
   SectionName=rect   TypeSize=Auto   AutoSFSize=1
 
TABLE:  "FUNCTION - PLOT FUNCTIONS"
   PlotFunc="Input Energy"   Type=Energy   Component=Input   Mode=All
 
TABLE:  "FUNCTION - POWER SPECTRAL DENSITY - USER"
   Name=UNIFPSD   Frequency=0   Value=1
   Name=UNIFPSD   Frequency=1   Value=1
 
TABLE:  "FUNCTION - RESPONSE SPECTRUM - USER"
   Name=UNIFRS   Period=0   Accel=1   FuncDamp=0.05
   Name=UNIFRS   Period=1   Accel=1
 
TABLE:  "FUNCTION - STEADY STATE - USER"
   Name=UNIFSS   Frequency=0   Value=1
   Name=UNIFSS   Frequency=1   Value=1
 
TABLE:  "FUNCTION - TIME HISTORY - USER"
   Name=th-0.002   Time=0   Value=0
   Name=th-0.002   Time=0.002   Value=2266.1246
   Name=th-0.002   Time=0.004   Value=4532.2493
   Name=th-0.002   Time=0.006   Value=6798.3739
   Name=th-0.002   Time=0.008   Value=9064.4985
   Name=th-0.002   Time=0.01   Value=11330.623
   Name=th-0.002   Time=0.012   Value=13596.748
   Name=th-0.002   Time=0.014   Value=15862.872
   Name=th-0.002   Time=0.016   Value=18128.997
   Name=th-0.002   Time=0.018   Value=20395.122
   Name=th-0.002   Time=0.02   Value=22661.246
   Name=th-0.002   Time=0.022   Value=24705.547
   Name=th-0.002   Time=0.024   Value=26749.847
   Name=th-0.002   Time=0.026   Value=28794.148
   Name=th-0.002   Time=0.028   Value=30838.448
   Name=th-0.002   Time=0.03   Value=32882.75
   Name=th-0.002   Time=0.032   Value=34927.05
   Name=th-0.002   Time=0.034   Value=36971.35
   Name=th-0.002   Time=0.036   Value=39015.65
   Name=th-0.002   Time=0.038   Value=41059.95
# ... 481 like lines cut
 
TABLE:  "GRID LINES"
   CoordSys=GLOBAL   AxisDir=X   GridID=A   XRYZCoord=0   LineType=Primary   LineColor=Gray8Dark   Visible=Yes   BubbleLoc=End   AllVisible=Yes   BubbleSize=0.75
   CoordSys=GLOBAL   AxisDir=X   GridID=B   XRYZCoord=5   LineType=Primary   LineColor=Gray8Dark   Visible=Yes   BubbleLoc=End
   CoordSys=GLOBAL   AxisDir=X   GridID=C   XRYZCoord=8   LineType=Primary   LineColor=Gray8Dark   Visible=Yes   BubbleLoc=End
   CoordSys=GLOBAL   AxisDir=X   GridID=D   XRYZCoord=10   LineType=Primary   LineColor=Gray8Dark   Visible=Yes   BubbleLoc=End
   CoordSys=GLOBAL   AxisDir=Y   GridID=1   XRYZCoord=0   LineType=Primary   LineColor=Gray8Dark   Visible=Yes   BubbleLoc=Start
   CoordSys=GLOBAL   AxisDir=Z   GridID=Z1   XRYZCoord=0   LineType=Primary   LineColor=Gray8Dark   Visible=Yes   BubbleLoc=End
   CoordSys=GLOBAL   AxisDir=Z   GridID=Z2   XRYZCoord=3   LineType=Primary   LineColor=Gray8Dark   Visible=Yes   BubbleLoc=End
   CoordSys=GLOBAL   AxisDir=Z   GridID=Z3   XRYZCoord=6   LineType=Primary   LineColor=Gray8Dark   Visible=Yes   BubbleLoc=End
 
TABLE:  "GROUPS 1 - DEFINITIONS"
   GroupName=ALL   Selection=Yes   SectionCut=Yes   Steel=Yes   Concrete=Yes   Aluminum=Yes   ColdFormed=Yes   Stage=Yes   Bridge=Yes   AutoSeismic=No   AutoWind=No   SelDesSteel=No   SelDesAlum=No   SelDesCold=No   MassWeight=Yes   Color=Red
 
TABLE:  "HINGES DEF 06 - INTERACTING - DEFORM CONTROL - GENERAL"
   HingeName=hinge-pm   DOFType="Interacting P-M3"   FDType=Moment-Rot   LengthType=Relative   SSRelLen=0.1   SFType=Yield   BeyondE="To Zero"   PMSym=Yes
 
TABLE:  "HINGES DEF 07 - INTERACTING - DEFORM CONTROL - FS AND ANGS"
   HingeName=hinge-pm   AxForce=0   Angle=90
 
TABLE:  "HINGES DEF 08 - INTERACTING - DEFORM CONTROL - FORCE-DEFORM"
   HingeName=hinge-pm   AxForce=0   Angle=90   FDPoint=A   MomRatio=0   RCRatio=0
   HingeName=hinge-pm   AxForce=0   Angle=90   FDPoint=B   MomRatio=1   RCRatio=0
   HingeName=hinge-pm   AxForce=0   Angle=90   FDPoint=C   MomRatio=1   RCRatio=6
   HingeName=hinge-pm   AxForce=0   Angle=90   FDPoint=D   MomRatio=1   RCRatio=6
   HingeName=hinge-pm   AxForce=0   Angle=90   FDPoint=E   MomRatio=1   RCRatio=8
 
TABLE:  "HINGES DEF 09 - INTERACTING - DEFORM CONTROL - ACCEPTANCE"
   HingeName=hinge-pm   AxForce=0   Angle=90   ACPoint=IO   AC=2
   HingeName=hinge-pm   AxForce=0   Angle=90   ACPoint=LS   AC=4
   HingeName=hinge-pm   AxForce=0   Angle=90   ACPoint=CP   AC=6
 
TABLE:  "HINGES DEF 11 - INTERACTING - INTERACTION SURFACE - GENERAL"
   HingeName=hinge-pm   DOFType="Interacting P-M3"   IntType=User   PCurve=Elastic-Plastic   SymPM=Yes   NumCurves=1   NumPoints=5   ScaleP=400000   ScaleM3=96000
 
TABLE:  "HINGES DEF 12 - INTERACTING - INTERACTION SURFACE - DATA"
   HingeName=hinge-pm   DOFType="Interacting P-M3"   CurveNum=1   PointNum=1   P=-1   M3=0
   HingeName=hinge-pm   DOFType="Interacting P-M3"   CurveNum=1   PointNum=2   P=-0.15   M3=1
   HingeName=hinge-pm   DOFType="Interacting P-M3"   CurveNum=1   PointNum=3   P=0   M3=1
   HingeName=hinge-pm   DOFType="Interacting P-M3"   CurveNum=1   PointNum=4   P=0.15   M3=1
   HingeName=hinge-pm   DOFType="Interacting P-M3"   CurveNum=1   PointNum=5   P=1   M3=0
 
TABLE:  "JOINT COORDINATES"
   Joint=0   CoordSys=GLOBAL   CoordType=Cartesian   XorR=0   Y=0   Z=0   SpecialJt=No   GUID=93d7696c-660a-429e-8113-c4a191429d8f
   Joint=1   CoordSys=GLOBAL   CoordType=Cartesian   XorR=5   Y=0   Z=0   SpecialJt=No   GUID=62b3cafc-80a9-4dfe-9b6b-ec171afb299d
   Joint=2   CoordSys=GLOBAL   CoordType=Cartesian   XorR=10   Y=0   Z=0   SpecialJt=No   GUID=4072d7b6-95f6-4443-97bc-24079cde4d6d
   Joint=3   CoordSys=GLOBAL   CoordType=Cartesian   XorR=0   Y=0   Z=3   SpecialJt=No   GUID=474d87d5-cbaa-43ba-8380-44ccb06e74e4
   Joint=4   CoordSys=GLOBAL   CoordType=Cartesian   XorR=5   Y=0   Z=3   SpecialJt=No   GUID=b4e9f79d-0386-4f0c-87e9-40c4b784d3b0
   Joint=5   CoordSys=GLOBAL   CoordType=Cartesian   XorR=8   Y=0   Z=3   SpecialJt=No   GUID=9dc6d769-b594-48af-b984-13546070ca43
   Joint=6   CoordSys=GLOBAL   CoordType=Cartesian   XorR=10   Y=0   Z=3   SpecialJt=No   GUID=60fadc3c-b576-4ccb-af00-57d2255b7b35
   Joint=7   CoordSys=GLOBAL   CoordType=Cartesian   XorR=0   Y=0   Z=6   SpecialJt=No   GUID=52465257-a06e-40d7-9ace-3bdbcf9c7e29
   Joint=8   CoordSys=GLOBAL   CoordType=Cartesian   XorR=5   Y=0   Z=6   SpecialJt=No   GUID=7f54ffd2-e526-4624-8830-e323f8003e3a
   Joint=9   CoordSys=GLOBAL   CoordType=Cartesian   XorR=8   Y=0   Z=6   SpecialJt=No   GUID=6a24131f-ba81-4d08-9132-b24242a6c55c
   Joint=10   CoordSys=GLOBAL   CoordType=Cartesian   XorR=10   Y=0   Z=6   SpecialJt=No   GUID=34b599fc-d7d4-4642-a9db-1ecce1d92505
 
TABLE:  "JOINT LOADS - FORCE"
   Joint=3   LoadPat=point   CoordSys=GLOBAL   F1=1.5   F2=0   F3=0   M1=0   M2=0   M3=0   GUID=e33f6b39-3fbd-4fdd-b935-4f08c39b6376
   Joint=5   LoadPat=point   CoordSys=GLOBAL   F1=0   F2=0   F3=-1.2   M1=0   M2=0   M3=0   GUID=27b81ff0-5352-4ede-84b7-a8b8411fd29c
   Joint=7   LoadPat=point   CoordSys=GLOBAL   F1=1.5   F2=0   F3=0   M1=0   M2=0   M3=0   GUID=1273b4a6-307d-40cc-8f42-7a70c51de684
   Joint=9   LoadPat=point   CoordSys=GLOBAL   F1=0   F2=0   F3=-1.2   M1=0   M2=0   M3=0   GUID=c4f1a7d0-3ad8-4b06-8bfb-aeb87e0f3fe8
 
TABLE:  "JOINT PATTERN DEFINITIONS"
   Pattern=Default
 
TABLE:  "JOINT RESTRAINT ASSIGNMENTS"
   Joint=0   U1=Yes   U2=Yes   U3=Yes   R1=Yes   R2=Yes   R3=Yes
   Joint=1   U1=Yes   U2=Yes   U3=Yes   R1=Yes   R2=Yes   R3=Yes
   Joint=2   U1=Yes   U2=Yes   U3=Yes   R1=Yes   R2=Yes   R3=Yes
 
TABLE:  "LOAD CASE DEFINITIONS"
   Case=DEAD   Type=LinStatic   InitialCond=Zero   DesTypeOpt="Prog Det"   DesignType=Dead   DesActOpt="Prog Det"   DesignAct=Non-Composite   AutoType=None   RunCase=No   GUID=66a4d4aa-9ca6-4580-8014-2ef4f5799416
   Case=MODAL   Type=LinModal   InitialCond=Zero   DesTypeOpt="Prog Det"   DesignType=Other   DesActOpt="Prog Det"   DesignAct=Other   AutoType=None   RunCase=No   GUID=29e0b8e3-1911-4710-aca9-0254461b4af7
   Case=point   Type=LinStatic   InitialCond=Zero   DesTypeOpt="Prog Det"   DesignType=Other   DesActOpt="Prog Det"   DesignAct=Other   AutoType=None   RunCase=No   GUID=ae29d319-d934-440a-b64e-83c0ec36f2ad
   Case=nonlinear-0.002   Type=NonDirHist   InitialCond=Zero   MassSource=MSSSRC1   DesTypeOpt="Prog Det"   DesignType=Other   DesActOpt="Prog Det"   DesignAct="Short-Term Composite"   AutoType=None   RunCase=Yes   GUID=5dc9e84b-2448-4a94-8f33-7e95e2f33eab
 
TABLE:  "LOAD PATTERN DEFINITIONS"
   LoadPat=DEAD   DesignType=Dead   SelfWtMult=1   GUID=a17cf12f-5752-41c7-b8f9-86886bcc5160
   LoadPat=point   DesignType=Other   SelfWtMult=0   GUID=175c3523-9aa0-4833-a4a7-036c13863a68   Notes="Added 6/19/2023 4:17:17 PM"
 
TABLE:  "MASS SOURCE"
   MassSource=MSSSRC1   Elements=No   Masses=No   Loads=Yes   IsDefault=Yes   LoadPat=DEAD   Multiplier=1
 
TABLE:  "MATERIAL PROPERTIES 01 - GENERAL"
   Material=4000Psi-1   Type=Concrete   Grade="f'c 4000 psi"   SymType=Isotropic   TempDepend=No   Color=Cyan   GUID=080a0410-9de9-4542-ba23-1fb2372dc6b2   Notes="Customary f'c 4000 psi 6/19/2023 4:10:47 PM"
   Material=A416Gr270   Type=Tendon   Grade="Grade 270"   SymType=Uniaxial   TempDepend=No   Color=Cyan   GUID=7a99bbf3-352d-4ac4-bf8b-1fc64e2249bd   Notes="ASTM A416 Grade 270 6/19/2023 4:16:16 PM"
   Material=A615Gr60   Type=Rebar   Grade="Grade 60"   SymType=Uniaxial   TempDepend=No   Color=Magenta   GUID=27f949ae-82ef-499d-93ff-21b929bc197c   Notes="ASTM A615 Grade 60 6/19/2023 4:16:17 PM"
   Material=steel   Type=Steel   Grade="Grade 50"   SymType=Isotropic   TempDepend=No   Color=Magenta   Notes="ASTM A992 Grade 50 6/19/2023 4:03:34 PM"
 
TABLE:  "MATERIAL PROPERTIES 02 - BASIC MECHANICAL PROPERTIES"
   Material=4000Psi-1   UnitWeight=23563.1216161854   UnitMass=2402.76960558926   E1=24855578060.0518   G12=10356490858.3549   U12=0.2   A1=9.89999952793124E-06
   Material=A416Gr270   UnitWeight=76972.8639422648   UnitMass=7849.04737995992   E1=196500599851.2   A1=1.16999994421006E-05
   Material=A615Gr60   UnitWeight=76972.8639422648   UnitMass=7849.04737995992   E1=199947978795.958   A1=1.16999994421006E-05
   Material=steel   UnitWeight=0   UnitMass=0   E1=200000000000   G12=76923076923.0769   U12=0.3   A1=1.16999994421006E-05
 
TABLE:  "MATERIAL PROPERTIES 03A - STEEL DATA"
   Material=steel   Fy=344737894.475789   Fu=448159262.818526   EffFy=379211683.923368   EffFu=492975189.100378   SSCurveOpt=Simple   SSHysType=Kinematic   SHard=0.015   SMax=0.11   SRup=0.17   FinalSlope=-0.1   CoupModType="Von Mises"
 
TABLE:  "MATERIAL PROPERTIES 03B - CONCRETE DATA"
   Material=4000Psi-1   Fc=27579031.5580631   eFc=27579031.5580631   LtWtConc=No   SSCurveOpt=Mander   SSHysType=Takeda   SFc=0.00221914   SCap=0.005   FinalSlope=-0.1   FAngle=0   DAngle=0   CoupModType="Modified Darwin-Pecknold"
 
TABLE:  "MATERIAL PROPERTIES 03E - REBAR DATA"
   Material=A615Gr60   Fy=413685473.370947   Fu=620528210.05642   EffFy=455054020.708041   EffFu=682581031.062062   SSCurveOpt=Simple   SSHysType=Kinematic   SHard=0.01   SCap=0.09   FinalSlope=-0.1   UseCTDef=No   CoupModType="Von Mises"
 
TABLE:  "MATERIAL PROPERTIES 03F - TENDON DATA"
   Material=A416Gr270   Fy=1689905158.72032   Fu=1861584630.16926   SSCurveOpt="270 ksi"   SSHysType=Kinematic   FinalSlope=-0.1   CoupModType="Von Mises"
 
TABLE:  "MATERIAL PROPERTIES 03J - COUPLED NONLINEAR VON MISES DATA"
   Material=A416Gr270   YieldStress=1689905158.72032   LinIsoHard=No   LinKinHard=No   NLIsoSaHard=No
   Material=A615Gr60   YieldStress=455054020.708041   LinIsoHard=No   LinKinHard=No   NLIsoSaHard=No
   Material=steel   YieldStress=379211683.923368   LinIsoHard=No   LinKinHard=No   NLIsoSaHard=No
 
TABLE:  "MATERIAL PROPERTIES 06 - DAMPING PARAMETERS"
   Material=4000Psi-1   ModalRatio=0   VisMass=0   VisStiff=0   HysMass=0   HysStiff=0
   Material=A416Gr270   ModalRatio=0   VisMass=0   VisStiff=0   HysMass=0   HysStiff=0
   Material=A615Gr60   ModalRatio=0   VisMass=0   VisStiff=0   HysMass=0   HysStiff=0
   Material=steel   ModalRatio=0   VisMass=0   VisStiff=0   HysMass=0   HysStiff=0
 
TABLE:  "MATERIAL PROPERTIES 09 - ACCEPTANCE CRITERIA"
   Material=4000Psi-1   IOTens=0.01   LSTens=0.02   CPTens=0.05   IOComp=-0.003   LSComp=-0.006   CPComp=-0.015   IgnoreTens=Yes
   Material=A416Gr270   IOTens=0.015   LSTens=0.023   CPTens=0.03   IOComp=-0.015   LSComp=-0.023   CPComp=-0.03
   Material=A615Gr60   IOTens=0.01   LSTens=0.02   CPTens=0.05   IOComp=-0.005   LSComp=-0.01   CPComp=-0.02
   Material=steel   IOTens=0.01   LSTens=0.02   CPTens=0.05   IOComp=-0.005   LSComp=-0.01   CPComp=-0.02
 
TABLE:  "OPTIONS - COLORS - DISPLAY"
   DeviceType=Screen   Points=Blue   LinesFrame=Blue   LinesFrmDL=Blue   LinesCable=Green   LinesTendon=Green   SpringLinks=Green   Restraints=Green   Releases=Green   Axes=Cyan   Text=Black   ShadowLines=Gray8Dark   GuideLines=Gray8Dark _
        Highlight=Red   Selection=10504778   AreaFillBot=Red   AreaFillTop=16744703   AreaFillSd=Red   AreaEdge=DarkRed   SolidF1=Red   SolidF2=Blue   SolidF3=Green   SolidF4=Yellow   SolidF5=White   SolidF6=Cyan   SolidEdge=DarkRed _
        Floor=Gray4   Background=White   BGLowLeft=White   BGLowRight=White   BGUpRight=White   Darkness=0.5
   DeviceType=Printer   Points=Gray8Dark   LinesFrame=Black   LinesFrmDL=Gray4   LinesCable=Black   LinesTendon=Black   SpringLinks=Gray8Dark   Restraints=Gray8Dark   Releases=Gray4   Axes=Black   Text=Black   ShadowLines=Gray4 _
        GuideLines=Gray4   Highlight=Black   Selection=Black   AreaFillBot=Gray4   AreaFillTop=Gray8Dark   AreaFillSd=Gray4   AreaEdge=Black   SolidF1=Gray1Light   SolidF2=Gray2   SolidF3=Gray3   SolidF4=Gray4   SolidF5=Gray5 _
        SolidF6=Gray6   SolidEdge=Black   Floor=Gray4   Background=White   BGLowLeft=White   BGLowRight=White   BGUpRight=White   Darkness=0.5
   DeviceType="Color Printer"   Points=Blue   LinesFrame=Blue   LinesFrmDL=Blue   LinesCable=Green   LinesTendon=Green   SpringLinks=Green   Restraints=Green   Releases=Green   Axes=Cyan   Text=Black   ShadowLines=Gray8Dark _
        GuideLines=Gray8Dark   Highlight=Red   Selection=10504778   AreaFillBot=Red   AreaFillTop=16744703   AreaFillSd=Red   AreaEdge=DarkRed   SolidF1=Red   SolidF2=Blue   SolidF3=Green   SolidF4=Yellow   SolidF5=White   SolidF6=Cyan _
        SolidEdge=DarkRed   Floor=Gray4   Background=White   BGLowLeft=White   BGLowRight=White   BGUpRight=White   Darkness=0.5
 
TABLE:  "OPTIONS - COLORS - OUTPUT"
   DeviceType=Screen   Contour1=13107400   Contour2=6553828   Contour3=Red   Contour4=16639   Contour5=Orange   Contour6=43775   Contour7=54527   Contour8=Yellow   Contour9=65408   Contour10=Green   Contour11=8453888   Contour12=Cyan _
        Contour13=16755200   Contour14=16733440   Contour15=Blue   Transpare=0   Ratio1=Cyan   Ratio2=Green   Ratio3=Yellow   Ratio4=Orange   Ratio5=Red   RatioNotD=Gray4   RatioNotC=Red   RatioVal1=0.5   RatioVal2=0.7   RatioVal3=0.9 _
        RatioVal4=1   DFillPos=Blue   DFillNeg=Red   DFillRPos=Green   DFillRNeg=Green
   DeviceType=Printer   Contour1=Black   Contour2=3158064   Contour3=4210752   Contour4=5263440   Contour5=6316128   Contour6=7368816   Contour7=Gray8Dark   Contour8=Gray7   Contour9=Gray6   Contour10=Gray5   Contour11=Gray4 _
        Contour12=Gray3   Contour13=Gray2   Contour14=Gray1Light   Contour15=White   Transpare=0   Ratio1=Gray2   Ratio2=Gray4   Ratio3=Gray8Dark   Ratio4=4210752   Ratio5=Black   RatioNotD=Gray4   RatioNotC=Black   RatioVal1=0.5 _
        RatioVal2=0.7   RatioVal3=0.9   RatioVal4=1   DFillPos=Gray8Dark   DFillNeg=Gray8Dark   DFillRPos=4210752   DFillRNeg=4210752
   DeviceType="Color Printer"   Contour1=13107400   Contour2=6553828   Contour3=Red   Contour4=16639   Contour5=Orange   Contour6=43775   Contour7=54527   Contour8=Yellow   Contour9=65408   Contour10=Green   Contour11=8453888 _
        Contour12=Cyan   Contour13=16755200   Contour14=16733440   Contour15=Blue   Transpare=0   Ratio1=Cyan   Ratio2=Green   Ratio3=Yellow   Ratio4=Orange   Ratio5=Red   RatioNotD=Gray4   RatioNotC=Red   RatioVal1=0.5   RatioVal2=0.7 _
        RatioVal3=0.9   RatioVal4=1   DFillPos=Blue   DFillNeg=Red   DFillRPos=Green   DFillRNeg=Green
 
TABLE:  "PREFERENCES - ALUMINUM DESIGN - AA 2015"
   THDesign=Envelopes   SRatioLimit=1   Provision=LRFD   LatFact=1.33333333333333   UseLatFact=No   Bridge=No   PhiTy=0.9   PhiTr=0.75   PhiC=0.9   PhiBo=0.9   PhiBr=0.75   PhiVo=0.9   PhiVr=0.75
 
TABLE:  "PREFERENCES - COLD FORMED DESIGN - AISI-16"
   THDesign=Envelopes   FrameType="Braced Frame"   SRatioLimit=1   SOMethod="General 2nd Order"   Provision=LRFD   LatFact=1.33333333333333   UseLatFact=No   PhiTy=0.9   PhiTr=0.75   PhiC=0.85   PhiB=0.9   PhiBPipe=0.95   PhiV=0.95
 
TABLE:  "PREFERENCES - CONCRETE DESIGN - ACI 318-19"
   THDesign=Envelopes   NumCurves=24   NumPoints=11   MinEccen=Yes   BCCDesign=Yes   IgnoreBPu=Yes   CTorsion=Yes   PatLLF=0.75   UFLimit=0.95   SeisCat=D   Rho=1   Sds=0.5   PhiT=0.9   PhiCTied=0.65   PhiCSpiral=0.75   PhiV=0.75 _
        PhiVSeismic=0.6   PhiVJoint=0.85   TanTheta=1
 
TABLE:  "PREFERENCES - CONCRETE SHELL DESIGN - EUROCODE 2-2004"
   Country="CEN Default"   GammaS=1.15   GammaC=1.5   AlphaCC=1   AlphaCT=1   CrackCond="Program Determined"   ShrDesMet="Method 1"   CotTheta=1
 
TABLE:  "PREFERENCES - DIMENSIONAL"
   MergeTol=0.001   FineGrid=0.25   Nudge=0.25   SelectTol=3   SnapTol=12   SLineThick=2   PLineThick=4   MaxFont=8   MinFont=3   AutoZoom=10   ShrinkFact=70   TextFileLen=240
 
TABLE:  "PREFERENCES - STEEL DESIGN - AISC 360-16"
   THDesign=Envelopes   FrameType=SMF   PatLLF=0.75   SRatioLimit=0.95   MaxIter=1   SDC=D   SeisCode=No   SeisLoad=No   ImpFactor=1   SystemRho=1   SystemSds=0.5   SystemR=8   SystemCd=5.5   Omega0=3   Provision=LRFD _
        AMethod="Direct Analysis"   SOMethod="General 2nd Order"   SRMethod="Tau-b Fixed"   NLCoeff=0.002   PhiB=0.9   PhiC=0.9   PhiTY=0.9   PhiTF=0.75   PhiV=0.9   PhiVRolledI=1   PhiVT=0.9   PlugWeld=Yes   HSSWelding=ERW   HSSReduceT=No _
        CheckDefl=No   DLRat=120   SDLAndLLRat=120   LLRat=360   TotalRat=240   NetRat=240
 
TABLE:  "PROGRAM CONTROL"
   ProgramName=SAP2000   Version=24.2.0   CurrUnits="N, m, C"   SteelCode="AISC 360-16"   ConcCode="ACI 318-19"   AlumCode="AA 2015"   ColdCode=AISI-16   RegenHinge=Yes
 
TABLE:  "PROJECT INFORMATION"
   Item="Company Name"
   Item="Client Name"
   Item="Project Name"
   Item="Project Number"
   Item="Model Name"
   Item="Model Description"
   Item="Revision Number"
   Item="Frame Type"
   Item=Engineer
   Item=Checker
   Item=Supervisor
   Item="Issue Code"
   Item="Design Code"
 
TABLE:  "REBAR SIZES"
   RebarID=#2   Area=3.2258E-05   Diameter=0.00635
   RebarID=#3   Area=7.09675996154547E-05   Diameter=0.009525
   RebarID=#4   Area=0.000129032001922727   Diameter=0.0127
   RebarID=#5   Area=0.000199999601538181   Diameter=0.015875
   RebarID=#6   Area=0.000283870398461819   Diameter=0.01905
   RebarID=#7   Area=0.000387096015381813   Diameter=0.022225
   RebarID=#8   Area=0.000509676413843632   Diameter=0.0254
   RebarID=#9   Area=0.00064516   Diameter=0.0286512005329132
   RebarID=#10   Area=0.00081935318769455   Diameter=0.0322579995155334
   RebarID=#11   Area=0.00100644956308365   Diameter=0.0358139991521835
   RebarID=#14   Area=0.00145161   Diameter=0.0430021989583969
   RebarID=#18   Area=0.00258064   Diameter=0.0573277992248535
   RebarID=10M   Area=0.000100000002655387   Diameter=0.011300000667572
   RebarID=15M   Area=0.000200000005310774   Diameter=0.0159999999403954
   RebarID=20M   Area=0.000300000017579794   Diameter=0.0194999997854233
   RebarID=25M   Area=0.000500000022890568   Diameter=0.0252000016093254
   RebarID=30M   Area=0.000700000008974075   Diameter=0.0299000008821487
   RebarID=35M   Area=0.00100000004578114   Diameter=0.0357000011444092
   RebarID=45M   Area=0.00150000010712624   Diameter=0.0437000003576279
   RebarID=55M   Area=0.00250000007599831   Diameter=0.0564000033855438
   RebarID=6d   Area=2.83000004149973E-05   Diameter=0.006000000166893
   RebarID=8d   Area=5.02999995571375E-05   Diameter=0.00799999997019768
   RebarID=10d   Area=7.85000013634562E-05   Diameter=0.00999999977350235
   RebarID=12d   Area=0.000113000009249449   Diameter=0.012000000333786
   RebarID=14d   Area=0.000154000010818839   Diameter=0.0140000008940697
   RebarID=16d   Area=0.000201000015431643   Diameter=0.0159999999403954
   RebarID=20d   Area=0.000314000005453825   Diameter=0.0199999995470047
   RebarID=25d   Area=0.000491000008711815   Diameter=0.0250000001907349
   RebarID=26d   Area=0.000531000029001236   Diameter=0.0259999997138977
   RebarID=28d   Area=0.000616000043275356   Diameter=0.0280000017881393
   RebarID=N12   Area=0.000113000009249449   Diameter=0.012000000333786
   RebarID=N16   Area=0.000201000015431643   Diameter=0.0159999999403954
   RebarID=N20   Area=0.000314000005453825   Diameter=0.0199999995470047
   RebarID=N24   Area=0.000452000036997795   Diameter=0.024000000667572
   RebarID=N28   Area=0.000616000043275356   Diameter=0.0280000017881393
   RebarID=N32   Area=0.00080400006172657   Diameter=0.0319999998807907
   RebarID=N36   Area=0.00102000001747131   Diameter=0.036000001001358
 
TABLE:  "SOLID PROPERTY DEFINITIONS"
   SolidProp=Solid1   Material=4000Psi-1   MatAngleA=0   MatAngleB=0   MatAngleC=0   InComp=Yes   Color=Red
 
END TABLE DATA
