File H:\Doctora\Thesis\results\SAP Models\3story_softening - 24\3story_softening.$2k was saved on m/d/yy at h:mm:ss
 
TABLE:  "ACTIVE DEGREES OF FREEDOM"
   UX=Yes   UY=No   UZ=Yes   RX=No   RY=Yes   RZ=No
 
TABLE:  "ANALYSIS OPTIONS"
   Solver=Advanced   SolverProc=Auto   Force32Bit=No   StiffCase=None   GeomMod=None   HingeOpt="In Elements"   NumAThreads=0   MaxFileSize=0   NumDThreads=0   NumRThreads=0   UseMMFiles="Program Determined"   AllowDiff=No
 
TABLE:  "AUTO WAVE 3 - WAVE CHARACTERISTICS - GENERAL"
   WaveChar=Default   WaveType="From Theory"   KinFactor=1   SWaterDepth=45   WaveHeight=18   WavePeriod=12   WaveTheory=Linear
 
TABLE:  "CASE - MODAL 1 - GENERAL"
   Case=MODAL   ModeType=Eigen   MaxNumModes=12   MinNumModes=1   EigenShift=0   EigenCutoff=0   EigenTol=1E-09   AutoShift=Yes
 
TABLE:  "CASE - STATIC 1 - LOAD ASSIGNMENTS"
   Case=DEAD   LoadType="Load pattern"   LoadName=DEAD   LoadSF=1
   Case=nonlinear   LoadType="Load pattern"   LoadName=DEAD   LoadSF=1
 
TABLE:  "CASE - STATIC 2 - NONLINEAR LOAD APPLICATION"
   Case=nonlinear   LoadApp="Full Load"   MonitorDOF=U1   MonitorJt=4
 
TABLE:  "CASE - STATIC 4 - NONLINEAR PARAMETERS"
   Case=nonlinear   GeoNonLin=None   ResultsSave="Final State"   SolScheme="Iterative Events"   MaxTotal=200   MaxNull=50   EvLumpTol=0.01   MaxEvPerStp=24   MaxIterCS=10   MaxIterNR=40   ItConvTol=0.0001   TFMaxIter=10   TFTol=0.01 _
        TFAccelFact=1   TFNoStop=No
 
TABLE:  "CONNECTIVITY - FRAME"
   Frame=1   JointI=1   JointJ=2   IsCurved=No   GUID=3b845e03-7261-4ea1-bc4d-23a9ea9c7059
   Frame=2   JointI=2   JointJ=3   IsCurved=No   GUID=1bbcfad5-47c2-4dff-88d0-1c533013b513
   Frame=3   JointI=3   JointJ=4   IsCurved=No   GUID=41824a1c-2b59-4dba-bb0e-110d2851e29a
   Frame=4   JointI=5   JointJ=6   IsCurved=No   GUID=1e5747d7-75a1-4f82-8916-3d90b28e5e13
   Frame=5   JointI=6   JointJ=7   IsCurved=No   GUID=abc2f6fd-0883-4025-ac43-b9fea54e2456
   Frame=6   JointI=7   JointJ=8   IsCurved=No   GUID=17a2d8ad-9fb1-43af-bedd-647ff6ddce0e
   Frame=7   JointI=2   JointJ=9   IsCurved=No   GUID=d96dd845-31a1-42a6-ba4e-52e93cf8f409
   Frame=8   JointI=9   JointJ=10   IsCurved=No   GUID=516fb9a9-64b9-4401-a334-74088aaa1f3e
   Frame=9   JointI=10   JointJ=6   IsCurved=No   GUID=5af121e5-93bf-447a-8f34-98b9bb433ae6
   Frame=10   JointI=3   JointJ=11   IsCurved=No   GUID=451ce153-f895-45b1-8356-4a7d3106c888
   Frame=11   JointI=11   JointJ=12   IsCurved=No   GUID=587de30a-12b7-4dc8-925b-4e84dc495014
   Frame=12   JointI=12   JointJ=7   IsCurved=No   GUID=cabf28b1-04a3-4bf4-998c-0465a10d0b9e
   Frame=13   JointI=4   JointJ=13   IsCurved=No   GUID=6ad37eeb-5ac7-4ae4-85af-18252e388871
   Frame=14   JointI=13   JointJ=14   IsCurved=No   GUID=4c273905-181b-4997-90f0-520a741c717d
   Frame=15   JointI=14   JointJ=8   IsCurved=No   GUID=448c9969-f496-4107-9979-b1073467bdef
   Frame=16   JointI=9   JointJ=1   IsCurved=No   GUID=0dc17170-ad29-4b79-b116-c2dcd1ee7077
   Frame=17   JointI=11   JointJ=2   IsCurved=No   GUID=fea112e5-a15b-4e61-bde4-fd903762f8a2
   Frame=18   JointI=13   JointJ=3   IsCurved=No   GUID=05f01ea8-ea18-47d3-a661-f711ebef8b32
   Frame=19   JointI=10   JointJ=5   IsCurved=No   GUID=6076b9cf-2dbb-421f-b352-17e295cfde1b
   Frame=20   JointI=12   JointJ=6   IsCurved=No   GUID=d91488bd-daf8-4295-9dde-da3e2877189b
   Frame=21   JointI=14   JointJ=7   IsCurved=No   GUID=c4e6ab57-8b62-47e1-86bb-d00c497e0a2f
 
TABLE:  "COORDINATE SYSTEMS"
   Name=GLOBAL   Type=Cartesian   X=0   Y=0   Z=0   AboutZ=0   AboutY=0   AboutX=0
 
TABLE:  "DATABASE DOCUMENTATION"
 
TABLE:  "DATABASE FORMAT TYPES"
   UnitsCurr=Yes   OverrideE=No
 
TABLE:  "FRAME AUTO MESH ASSIGNMENTS"
   Frame=1   AutoMesh=Yes   AtJoints=Yes   AtFrames=No   NumSegments=0   MaxLength=0   MaxDegrees=0
   Frame=2   AutoMesh=Yes   AtJoints=Yes   AtFrames=No   NumSegments=0   MaxLength=0   MaxDegrees=0
   Frame=3   AutoMesh=Yes   AtJoints=Yes   AtFrames=No   NumSegments=0   MaxLength=0   MaxDegrees=0
   Frame=4   AutoMesh=Yes   AtJoints=Yes   AtFrames=No   NumSegments=0   MaxLength=0   MaxDegrees=0
   Frame=5   AutoMesh=Yes   AtJoints=Yes   AtFrames=No   NumSegments=0   MaxLength=0   MaxDegrees=0
   Frame=6   AutoMesh=Yes   AtJoints=Yes   AtFrames=No   NumSegments=0   MaxLength=0   MaxDegrees=0
   Frame=7   AutoMesh=Yes   AtJoints=Yes   AtFrames=No   NumSegments=0   MaxLength=0   MaxDegrees=0
   Frame=8   AutoMesh=Yes   AtJoints=Yes   AtFrames=No   NumSegments=0   MaxLength=0   MaxDegrees=0
   Frame=9   AutoMesh=Yes   AtJoints=Yes   AtFrames=No   NumSegments=0   MaxLength=0   MaxDegrees=0
   Frame=10   AutoMesh=Yes   AtJoints=Yes   AtFrames=No   NumSegments=0   MaxLength=0   MaxDegrees=0
   Frame=11   AutoMesh=Yes   AtJoints=Yes   AtFrames=No   NumSegments=0   MaxLength=0   MaxDegrees=0
   Frame=12   AutoMesh=Yes   AtJoints=Yes   AtFrames=No   NumSegments=0   MaxLength=0   MaxDegrees=0
   Frame=13   AutoMesh=Yes   AtJoints=Yes   AtFrames=No   NumSegments=0   MaxLength=0   MaxDegrees=0
   Frame=14   AutoMesh=Yes   AtJoints=Yes   AtFrames=No   NumSegments=0   MaxLength=0   MaxDegrees=0
   Frame=15   AutoMesh=Yes   AtJoints=Yes   AtFrames=No   NumSegments=0   MaxLength=0   MaxDegrees=0
   Frame=16   AutoMesh=Yes   AtJoints=Yes   AtFrames=No   NumSegments=0   MaxLength=0   MaxDegrees=0
   Frame=17   AutoMesh=Yes   AtJoints=Yes   AtFrames=No   NumSegments=0   MaxLength=0   MaxDegrees=0
   Frame=18   AutoMesh=Yes   AtJoints=Yes   AtFrames=No   NumSegments=0   MaxLength=0   MaxDegrees=0
   Frame=19   AutoMesh=Yes   AtJoints=Yes   AtFrames=No   NumSegments=0   MaxLength=0   MaxDegrees=0
   Frame=20   AutoMesh=Yes   AtJoints=Yes   AtFrames=No   NumSegments=0   MaxLength=0   MaxDegrees=0
   Frame=21   AutoMesh=Yes   AtJoints=Yes   AtFrames=No   NumSegments=0   MaxLength=0   MaxDegrees=0
 
TABLE:  "FRAME DESIGN PROCEDURES"
   Frame=1   DesignProc="From Material"
   Frame=2   DesignProc="From Material"
   Frame=3   DesignProc="From Material"
   Frame=4   DesignProc="From Material"
   Frame=5   DesignProc="From Material"
   Frame=6   DesignProc="From Material"
   Frame=7   DesignProc="From Material"
   Frame=8   DesignProc="From Material"
   Frame=9   DesignProc="From Material"
   Frame=10   DesignProc="From Material"
   Frame=11   DesignProc="From Material"
   Frame=12   DesignProc="From Material"
   Frame=13   DesignProc="From Material"
   Frame=14   DesignProc="From Material"
   Frame=15   DesignProc="From Material"
   Frame=16   DesignProc="From Material"
   Frame=17   DesignProc="From Material"
   Frame=18   DesignProc="From Material"
   Frame=19   DesignProc="From Material"
   Frame=20   DesignProc="From Material"
   Frame=21   DesignProc="From Material"
 
TABLE:  "FRAME HINGE ASSIGNS 02 - USER DEFINED PROPERTIES"
   Frame=1   AssignProp=sec1   DistType=RelDist   RelDist=0
   Frame=1   AssignProp=sec1   DistType=RelDist   RelDist=1
   Frame=2   AssignProp=sec1   DistType=RelDist   RelDist=0
   Frame=2   AssignProp=sec1   DistType=RelDist   RelDist=1
   Frame=3   AssignProp=sec1   DistType=RelDist   RelDist=0
   Frame=3   AssignProp=sec1   DistType=RelDist   RelDist=1
   Frame=4   AssignProp=sec1   DistType=RelDist   RelDist=0
   Frame=4   AssignProp=sec1   DistType=RelDist   RelDist=1
   Frame=5   AssignProp=sec1   DistType=RelDist   RelDist=0
   Frame=5   AssignProp=sec1   DistType=RelDist   RelDist=1
   Frame=6   AssignProp=sec1   DistType=RelDist   RelDist=0
   Frame=6   AssignProp=sec1   DistType=RelDist   RelDist=1
   Frame=7   AssignProp=sec2   DistType=RelDist   RelDist=1
   Frame=7   AssignProp=sec2   DistType=RelDist   RelDist=0
   Frame=8   AssignProp=sec2   DistType=RelDist   RelDist=1
   Frame=8   AssignProp=sec2   DistType=RelDist   RelDist=0
   Frame=9   AssignProp=sec2   DistType=RelDist   RelDist=1
   Frame=9   AssignProp=sec2   DistType=RelDist   RelDist=0
   Frame=10   AssignProp=sec2   DistType=RelDist   RelDist=1
   Frame=10   AssignProp=sec2   DistType=RelDist   RelDist=0
# ... 22 like lines cut
 
TABLE:  "FRAME HINGE ASSIGNS 09 - HINGE OVERWRITES"
   Frame=1   AutoDivide=No   NoLoadDrop=No   LimNegStiff=0.1
   Frame=2   AutoDivide=No   NoLoadDrop=No   LimNegStiff=0.1
   Frame=3   AutoDivide=No   NoLoadDrop=No   LimNegStiff=0.1
   Frame=4   AutoDivide=No   NoLoadDrop=No   LimNegStiff=0.1
   Frame=5   AutoDivide=No   NoLoadDrop=No   LimNegStiff=0.1
   Frame=6   AutoDivide=No   NoLoadDrop=No   LimNegStiff=0.1
   Frame=7   AutoDivide=No   NoLoadDrop=No   LimNegStiff=0.1
   Frame=8   AutoDivide=No   NoLoadDrop=No   LimNegStiff=0.1
   Frame=9   AutoDivide=No   NoLoadDrop=No   LimNegStiff=0.1
   Frame=10   AutoDivide=No   NoLoadDrop=No   LimNegStiff=0.1
   Frame=11   AutoDivide=No   NoLoadDrop=No   LimNegStiff=0.1
   Frame=12   AutoDivide=No   NoLoadDrop=No   LimNegStiff=0.1
   Frame=13   AutoDivide=No   NoLoadDrop=No   LimNegStiff=0.1
   Frame=14   AutoDivide=No   NoLoadDrop=No   LimNegStiff=0.1
   Frame=15   AutoDivide=No   NoLoadDrop=No   LimNegStiff=0.1
   Frame=16   AutoDivide=No   NoLoadDrop=No   LimNegStiff=0.1
   Frame=17   AutoDivide=No   NoLoadDrop=No   LimNegStiff=0.1
   Frame=18   AutoDivide=No   NoLoadDrop=No   LimNegStiff=0.1
   Frame=19   AutoDivide=No   NoLoadDrop=No   LimNegStiff=0.1
   Frame=20   AutoDivide=No   NoLoadDrop=No   LimNegStiff=0.1
   Frame=21   AutoDivide=No   NoLoadDrop=No   LimNegStiff=0.1
 
TABLE:  "FRAME LOAD TRANSFER OPTIONS"
   Frame=1   Transfer=Yes
   Frame=2   Transfer=Yes
   Frame=3   Transfer=Yes
   Frame=4   Transfer=Yes
   Frame=5   Transfer=Yes
   Frame=6   Transfer=Yes
   Frame=7   Transfer=Yes
   Frame=8   Transfer=Yes
   Frame=9   Transfer=Yes
   Frame=10   Transfer=Yes
   Frame=11   Transfer=Yes
   Frame=12   Transfer=Yes
   Frame=13   Transfer=Yes
   Frame=14   Transfer=Yes
   Frame=15   Transfer=Yes
   Frame=16   Transfer=Yes
   Frame=17   Transfer=Yes
   Frame=18   Transfer=Yes
   Frame=19   Transfer=Yes
   Frame=20   Transfer=Yes
   Frame=21   Transfer=Yes
 
TABLE:  "FRAME OUTPUT STATION ASSIGNMENTS"
   Frame=1   StationType=MinNumSta   MinNumSta=3   AddAtElmInt=Yes   AddAtPtLoad=Yes
   Frame=2   StationType=MinNumSta   MinNumSta=3   AddAtElmInt=Yes   AddAtPtLoad=Yes
   Frame=3   StationType=MinNumSta   MinNumSta=3   AddAtElmInt=Yes   AddAtPtLoad=Yes
   Frame=4   StationType=MinNumSta   MinNumSta=3   AddAtElmInt=Yes   AddAtPtLoad=Yes
   Frame=5   StationType=MinNumSta   MinNumSta=3   AddAtElmInt=Yes   AddAtPtLoad=Yes
   Frame=6   StationType=MinNumSta   MinNumSta=3   AddAtElmInt=Yes   AddAtPtLoad=Yes
   Frame=7   StationType=MaxStaSpcg   MaxStaSpcg=0.5   AddAtElmInt=Yes   AddAtPtLoad=Yes
   Frame=8   StationType=MaxStaSpcg   MaxStaSpcg=0.5   AddAtElmInt=Yes   AddAtPtLoad=Yes
   Frame=9   StationType=MaxStaSpcg   MaxStaSpcg=0.5   AddAtElmInt=Yes   AddAtPtLoad=Yes
   Frame=10   StationType=MaxStaSpcg   MaxStaSpcg=0.5   AddAtElmInt=Yes   AddAtPtLoad=Yes
   Frame=11   StationType=MaxStaSpcg   MaxStaSpcg=0.5   AddAtElmInt=Yes   AddAtPtLoad=Yes
   Frame=12   StationType=MaxStaSpcg   MaxStaSpcg=0.5   AddAtElmInt=Yes   AddAtPtLoad=Yes
   Frame=13   StationType=MaxStaSpcg   MaxStaSpcg=0.5   AddAtElmInt=Yes   AddAtPtLoad=Yes
   Frame=14   StationType=MaxStaSpcg   MaxStaSpcg=0.5   AddAtElmInt=Yes   AddAtPtLoad=Yes
   Frame=15   StationType=MaxStaSpcg   MaxStaSpcg=0.5   AddAtElmInt=Yes   AddAtPtLoad=Yes
   Frame=16   StationType=MinNumSta   MinNumSta=3   AddAtElmInt=Yes   AddAtPtLoad=Yes
   Frame=17   StationType=MinNumSta   MinNumSta=3   AddAtElmInt=Yes   AddAtPtLoad=Yes
   Frame=18   StationType=MinNumSta   MinNumSta=3   AddAtElmInt=Yes   AddAtPtLoad=Yes
   Frame=19   StationType=MinNumSta   MinNumSta=3   AddAtElmInt=Yes   AddAtPtLoad=Yes
   Frame=20   StationType=MinNumSta   MinNumSta=3   AddAtElmInt=Yes   AddAtPtLoad=Yes
   Frame=21   StationType=MinNumSta   MinNumSta=3   AddAtElmInt=Yes   AddAtPtLoad=Yes
 
TABLE:  "FRAME SECTION ASSIGNMENTS"
   Frame=1   AutoSelect=N.A.   AnalSect=col   MatProp=Default
   Frame=2   AutoSelect=N.A.   AnalSect=col   MatProp=Default
   Frame=3   AutoSelect=N.A.   AnalSect=col   MatProp=Default
   Frame=4   AutoSelect=N.A.   AnalSect=col   MatProp=Default
   Frame=5   AutoSelect=N.A.   AnalSect=col   MatProp=Default
   Frame=6   AutoSelect=N.A.   AnalSect=col   MatProp=Default
   Frame=7   AutoSelect=N.A.   AnalSect=beam   MatProp=Default
   Frame=8   AutoSelect=N.A.   AnalSect=beam   MatProp=Default
   Frame=9   AutoSelect=N.A.   AnalSect=beam   MatProp=Default
   Frame=10   AutoSelect=N.A.   AnalSect=beam   MatProp=Default
   Frame=11   AutoSelect=N.A.   AnalSect=beam   MatProp=Default
   Frame=12   AutoSelect=N.A.   AnalSect=beam   MatProp=Default
   Frame=13   AutoSelect=N.A.   AnalSect=beam   MatProp=Default
   Frame=14   AutoSelect=N.A.   AnalSect=beam   MatProp=Default
   Frame=15   AutoSelect=N.A.   AnalSect=beam   MatProp=Default
   Frame=16   AutoSelect=N.A.   AnalSect=brace   MatProp=Default
   Frame=17   AutoSelect=N.A.   AnalSect=brace   MatProp=Default
   Frame=18   AutoSelect=N.A.   AnalSect=brace   MatProp=Default
   Frame=19   AutoSelect=N.A.   AnalSect=brace   MatProp=Default
   Frame=20   AutoSelect=N.A.   AnalSect=brace   MatProp=Default
   Frame=21   AutoSelect=N.A.   AnalSect=brace   MatProp=Default
 
TABLE:  "FRAME SECTION PROPERTIES 01 - GENERAL"
   SectionName=beam   Material=steel   Shape=General   t3=0.4572   t2=0.254   Area=0.00232   TorsConst=1   I33=1.58E-05   I22=1   I23=0   AS2=0   AS3=0   S33Top=1   S33Bot=1   S22Left=1   S22Right=1   Z33=1   Z22=1   R33=1   R22=1 _
        CGOffset3=0   CGOffset2=0   EccV2=0   EccV3=0   Cw=0   IncludeSCAn=Yes   Color=Cyan   FromFile=No   AMod=1   A2Mod=0   A3Mod=0   JMod=1   I2Mod=1   I3Mod=1   MMod=0   WMod=0   Notes="Added 2023-06-12 2:50:41 PM"
   SectionName=brace   Material=steel   Shape=General   t3=0.4572   t2=0.254   Area=0.0039   TorsConst=1   I33=8.38E-06   I22=1   I23=0   AS2=0   AS3=0   S33Top=1   S33Bot=1   S22Left=1   S22Right=1   Z33=1   Z22=1   R33=1   R22=1 _
        CGOffset3=0   CGOffset2=0   EccV2=0   EccV3=0   Cw=0   IncludeSCAn=Yes   Color=Magenta   FromFile=No   AMod=1   A2Mod=0   A3Mod=0   JMod=1   I2Mod=1   I3Mod=1   MMod=0   WMod=0   Notes="Added 2023-06-12 2:52:30 PM"
   SectionName=col   Material=steel   Shape=General   t3=0.4572   t2=0.254   Area=0.015   TorsConst=1   I33=0.000277   I22=1   I23=0   AS2=0   AS3=0   S33Top=1   S33Bot=1   S22Left=1   S22Right=1   Z33=1   Z22=1   R33=1   R22=1 _
        CGOffset3=0   CGOffset2=0   EccV2=0   EccV3=0   Cw=0   IncludeSCAn=Yes   Color=Blue   FromFile=No   AMod=1   A2Mod=0   A3Mod=0   JMod=1   I2Mod=1   I3Mod=1   MMod=0   WMod=0   Notes="Added 2023-06-12 2:49:05 PM"
 
TABLE:  "FRAME SECTION PROPERTIES 13 - TIME DEPENDENT"
   SectionName=beam   TypeSize=None
   SectionName=brace   TypeSize=None
   SectionName=col   TypeSize=None
 
TABLE:  "FUNCTION - PLOT FUNCTIONS"
   PlotFunc="Input Energy"   Type=Energy   Component=Input   Mode=All
 
TABLE:  "FUNCTION - POWER SPECTRAL DENSITY - USER"
   Name=UNIFPSD   Frequency=0   Value=1
   Name=UNIFPSD   Frequency=1   Value=1
 
TABLE:  "FUNCTION - RESPONSE SPECTRUM - USER"
   Name=UNIFRS   Period=0   Accel=1   FuncDamp=0.05
   Name=UNIFRS   Period=1   Accel=1
 
TABLE:  "FUNCTION - STEADY STATE - USER"
   Name=UNIFSS   Frequency=0   Value=1
   Name=UNIFSS   Frequency=1   Value=1
 
TABLE:  "FUNCTION - TIME HISTORY - USER"
   Name=RAMPTH   Time=0   Value=0
   Name=RAMPTH   Time=1   Value=1
   Name=RAMPTH   Time=4   Value=1
   Name=UNIFTH   Time=0   Value=1
   Name=UNIFTH   Time=1   Value=1
 
TABLE:  "GRID LINES"
   CoordSys=GLOBAL   AxisDir=X   GridID=A   XRYZCoord=0   LineType=Primary   LineColor=Gray8Dark   Visible=Yes   BubbleLoc=End   AllVisible=Yes   BubbleSize=0.5
   CoordSys=GLOBAL   AxisDir=X   GridID=B   XRYZCoord=2   LineType=Primary   LineColor=Gray8Dark   Visible=Yes   BubbleLoc=End
   CoordSys=GLOBAL   AxisDir=X   GridID=C   XRYZCoord=4   LineType=Primary   LineColor=Gray8Dark   Visible=Yes   BubbleLoc=End
   CoordSys=GLOBAL   AxisDir=X   GridID=D   XRYZCoord=6   LineType=Primary   LineColor=Gray8Dark   Visible=Yes   BubbleLoc=End
   CoordSys=GLOBAL   AxisDir=Y   GridID=1   XRYZCoord=0   LineType=Primary   LineColor=Gray8Dark   Visible=Yes   BubbleLoc=Start
   CoordSys=GLOBAL   AxisDir=Z   GridID=Z1   XRYZCoord=0   LineType=Primary   LineColor=Gray8Dark   Visible=Yes   BubbleLoc=End
   CoordSys=GLOBAL   AxisDir=Z   GridID=Z2   XRYZCoord=3   LineType=Primary   LineColor=Gray8Dark   Visible=Yes   BubbleLoc=End
   CoordSys=GLOBAL   AxisDir=Z   GridID=Z3   XRYZCoord=6   LineType=Primary   LineColor=Gray8Dark   Visible=Yes   BubbleLoc=End
   CoordSys=GLOBAL   AxisDir=Z   GridID=Z4   XRYZCoord=9   LineType=Primary   LineColor=Gray8Dark   Visible=Yes   BubbleLoc=End
 
TABLE:  "GROUPS 1 - DEFINITIONS"
   GroupName=ALL   Selection=Yes   SectionCut=Yes   Steel=Yes   Concrete=Yes   Aluminum=Yes   ColdFormed=Yes   Stage=Yes   Bridge=Yes   AutoSeismic=No   AutoWind=No   SelDesSteel=No   SelDesAlum=No   SelDesCold=No   MassWeight=Yes   Color=Red
 
TABLE:  "HINGES DEF 06 - INTERACTING - DEFORM CONTROL - GENERAL"
   HingeName=sec1   DOFType="Interacting P-M3"   FDType=Moment-Rot   LengthType=Relative   SSRelLen=0.1   SFType="User Defined"   UserSFRot=1   BeyondE=Extrapolated   PMSym=Yes
   HingeName=sec2   DOFType="Interacting P-M3"   FDType=Moment-Rot   LengthType=Relative   SSRelLen=0.1   SFType="User Defined"   UserSFRot=1   BeyondE=Extrapolated   PMSym=Yes
   HingeName=sec3   DOFType="Interacting P-M3"   FDType=Moment-Rot   LengthType=Relative   SSRelLen=0.1   SFType=Yield   BeyondE=Extrapolated   PMSym=Yes
 
TABLE:  "HINGES DEF 07 - INTERACTING - DEFORM CONTROL - FS AND ANGS"
   HingeName=sec1   AxForce=0   Angle=90
   HingeName=sec2   AxForce=0   Angle=90
   HingeName=sec3   AxForce=0   Angle=90
 
TABLE:  "HINGES DEF 08 - INTERACTING - DEFORM CONTROL - FORCE-DEFORM"
   HingeName=sec1   AxForce=0   Angle=90   FDPoint=A   MomRatio=0   RCRatio=0
   HingeName=sec1   AxForce=0   Angle=90   FDPoint=B   MomRatio=1   RCRatio=0
   HingeName=sec1   AxForce=0   Angle=90   FDPoint=C   MomRatio=0.7   RCRatio=0.8119
   HingeName=sec1   AxForce=0   Angle=90   FDPoint=D   MomRatio=0.7   RCRatio=1
   HingeName=sec1   AxForce=0   Angle=90   FDPoint=E   MomRatio=0.7   RCRatio=2
   HingeName=sec2   AxForce=0   Angle=90   FDPoint=A   MomRatio=0   RCRatio=0
   HingeName=sec2   AxForce=0   Angle=90   FDPoint=B   MomRatio=1   RCRatio=0
   HingeName=sec2   AxForce=0   Angle=90   FDPoint=C   MomRatio=0.7   RCRatio=0.4211
   HingeName=sec2   AxForce=0   Angle=90   FDPoint=D   MomRatio=0.7   RCRatio=1
   HingeName=sec2   AxForce=0   Angle=90   FDPoint=E   MomRatio=0.7   RCRatio=2
   HingeName=sec3   AxForce=0   Angle=90   FDPoint=A   MomRatio=0   RCRatio=0
   HingeName=sec3   AxForce=0   Angle=90   FDPoint=B   MomRatio=1   RCRatio=0
   HingeName=sec3   AxForce=0   Angle=90   FDPoint=C   MomRatio=1   RCRatio=6
   HingeName=sec3   AxForce=0   Angle=90   FDPoint=D   MomRatio=1   RCRatio=6
   HingeName=sec3   AxForce=0   Angle=90   FDPoint=E   MomRatio=1   RCRatio=100
 
TABLE:  "HINGES DEF 09 - INTERACTING - DEFORM CONTROL - ACCEPTANCE"
   HingeName=sec1   AxForce=0   Angle=90   ACPoint=IO   AC=2
   HingeName=sec1   AxForce=0   Angle=90   ACPoint=LS   AC=4
   HingeName=sec1   AxForce=0   Angle=90   ACPoint=CP   AC=6
   HingeName=sec2   AxForce=0   Angle=90   ACPoint=IO   AC=2
   HingeName=sec2   AxForce=0   Angle=90   ACPoint=LS   AC=4
   HingeName=sec2   AxForce=0   Angle=90   ACPoint=CP   AC=6
   HingeName=sec3   AxForce=0   Angle=90   ACPoint=IO   AC=2
   HingeName=sec3   AxForce=0   Angle=90   ACPoint=LS   AC=4
   HingeName=sec3   AxForce=0   Angle=90   ACPoint=CP   AC=6
 
TABLE:  "HINGES DEF 11 - INTERACTING - INTERACTION SURFACE - GENERAL"
   HingeName=sec1   DOFType="Interacting P-M3"   IntType=User   PCurve=Elastic-Plastic   SymPM=Yes   NumCurves=1   NumPoints=5   ScaleP=4200000   ScaleM3=548800
   HingeName=sec2   DOFType="Interacting P-M3"   IntType=User   PCurve=Elastic-Plastic   SymPM=Yes   NumCurves=1   NumPoints=5   ScaleP=742400   ScaleM3=57600
   HingeName=sec3   DOFType="Interacting P-M3"   IntType=User   PCurve=Elastic-Plastic   SymPM=Yes   NumCurves=1   NumPoints=5   ScaleP=1365000   ScaleM3=57750
 
TABLE:  "HINGES DEF 12 - INTERACTING - INTERACTION SURFACE - DATA"
   HingeName=sec1   DOFType="Interacting P-M3"   CurveNum=1   PointNum=1   P=-1   M3=0
   HingeName=sec1   DOFType="Interacting P-M3"   CurveNum=1   PointNum=2   P=-0.15   M3=1
   HingeName=sec1   DOFType="Interacting P-M3"   CurveNum=1   PointNum=3   P=0   M3=1
   HingeName=sec1   DOFType="Interacting P-M3"   CurveNum=1   PointNum=4   P=0.15   M3=1
   HingeName=sec1   DOFType="Interacting P-M3"   CurveNum=1   PointNum=5   P=1   M3=0
   HingeName=sec2   DOFType="Interacting P-M3"   CurveNum=1   PointNum=1   P=-1   M3=0
   HingeName=sec2   DOFType="Interacting P-M3"   CurveNum=1   PointNum=2   P=-0.15   M3=1
   HingeName=sec2   DOFType="Interacting P-M3"   CurveNum=1   PointNum=3   P=0   M3=1
   HingeName=sec2   DOFType="Interacting P-M3"   CurveNum=1   PointNum=4   P=0.15   M3=1
   HingeName=sec2   DOFType="Interacting P-M3"   CurveNum=1   PointNum=5   P=1   M3=0
   HingeName=sec3   DOFType="Interacting P-M3"   CurveNum=1   PointNum=1   P=-1   M3=0
   HingeName=sec3   DOFType="Interacting P-M3"   CurveNum=1   PointNum=2   P=-0.15   M3=1
   HingeName=sec3   DOFType="Interacting P-M3"   CurveNum=1   PointNum=3   P=0   M3=1
   HingeName=sec3   DOFType="Interacting P-M3"   CurveNum=1   PointNum=4   P=0.15   M3=1
   HingeName=sec3   DOFType="Interacting P-M3"   CurveNum=1   PointNum=5   P=1   M3=0
 
TABLE:  "JOINT COORDINATES"
   Joint=1   CoordSys=GLOBAL   CoordType=Cartesian   XorR=0   Y=0   Z=0   SpecialJt=No   GUID=1fe95fd8-0637-4dd6-a309-8c2fb6ff301c
   Joint=2   CoordSys=GLOBAL   CoordType=Cartesian   XorR=0   Y=0   Z=3   SpecialJt=No   GUID=5798fd29-110e-4829-88eb-eed4836edb06
   Joint=3   CoordSys=GLOBAL   CoordType=Cartesian   XorR=0   Y=0   Z=6   SpecialJt=No   GUID=c27856cd-45a2-49d4-af89-ddf50e850f2c
   Joint=4   CoordSys=GLOBAL   CoordType=Cartesian   XorR=0   Y=0   Z=9   SpecialJt=No   GUID=20300c14-0bbe-43dc-91e1-d1a19bc63066
   Joint=5   CoordSys=GLOBAL   CoordType=Cartesian   XorR=6   Y=0   Z=0   SpecialJt=No   GUID=2e8f2af2-a9e7-4bc8-9c24-c4f20d1de73f
   Joint=6   CoordSys=GLOBAL   CoordType=Cartesian   XorR=6   Y=0   Z=3   SpecialJt=No   GUID=58193ed2-bfdc-487f-b81c-3d1c33665f2a
   Joint=7   CoordSys=GLOBAL   CoordType=Cartesian   XorR=6   Y=0   Z=6   SpecialJt=No   GUID=752fbd7d-177f-4e9b-a9f6-cac8a8ee8ddc
   Joint=8   CoordSys=GLOBAL   CoordType=Cartesian   XorR=6   Y=0   Z=9   SpecialJt=No   GUID=32d5aa89-f029-49a0-adc9-c90c10c81437
   Joint=9   CoordSys=GLOBAL   CoordType=Cartesian   XorR=2   Y=0   Z=3   SpecialJt=No   GUID=e9d776ac-7b87-4d5c-9400-d96be5631acf
   Joint=10   CoordSys=GLOBAL   CoordType=Cartesian   XorR=4   Y=0   Z=3   SpecialJt=No   GUID=2778bc73-11fa-4e61-9225-1e02881a662a
   Joint=11   CoordSys=GLOBAL   CoordType=Cartesian   XorR=2   Y=0   Z=6   SpecialJt=No   GUID=e70a8657-1952-4b8d-99e1-5ff77993ac44
   Joint=12   CoordSys=GLOBAL   CoordType=Cartesian   XorR=4   Y=0   Z=6   SpecialJt=No   GUID=461c52fa-885d-488e-91b9-3c28fbc45e6b
   Joint=13   CoordSys=GLOBAL   CoordType=Cartesian   XorR=2   Y=0   Z=9   SpecialJt=No   GUID=d42f48bf-c800-4f82-8500-196a380e257c
   Joint=14   CoordSys=GLOBAL   CoordType=Cartesian   XorR=4   Y=0   Z=9   SpecialJt=No   GUID=4b40083a-0092-48a3-bc5f-17d440480071
 
TABLE:  "JOINT LOADS - FORCE"
   Joint=2   LoadPat=DEAD   CoordSys=GLOBAL   F1=0   F2=0   F3=-150000   M1=0   M2=0   M3=0   GUID=9add8c1c-ce37-40f6-a8b7-7ab1425350fa
   Joint=3   LoadPat=DEAD   CoordSys=GLOBAL   F1=0   F2=0   F3=-150000   M1=0   M2=0   M3=0   GUID=49c31067-40f3-43de-ac18-d276260f2aba
   Joint=4   LoadPat=DEAD   CoordSys=GLOBAL   F1=300000   F2=0   F3=-150000   M1=0   M2=0   M3=0   GUID=3179de22-40cd-4a93-a8c7-16622ee322e6
   Joint=6   LoadPat=DEAD   CoordSys=GLOBAL   F1=0   F2=0   F3=-150000   M1=0   M2=0   M3=0   GUID=9f69c612-bc80-449b-9392-f86ecbb03816
   Joint=7   LoadPat=DEAD   CoordSys=GLOBAL   F1=0   F2=0   F3=-150000   M1=0   M2=0   M3=0   GUID=10a8f7f0-c985-4503-8672-2d8736276f9e
   Joint=8   LoadPat=DEAD   CoordSys=GLOBAL   F1=0   F2=0   F3=-150000   M1=0   M2=0   M3=0   GUID=60c6888a-8908-4b0d-b611-277c3d2710f2
   Joint=9   LoadPat=DEAD   CoordSys=GLOBAL   F1=0   F2=0   F3=-150000   M1=0   M2=0   M3=0   GUID=25bcd847-7070-4841-b316-e52977f2b935
   Joint=10   LoadPat=DEAD   CoordSys=GLOBAL   F1=0   F2=0   F3=-150000   M1=0   M2=0   M3=0   GUID=ff8ac353-f654-49a9-8e17-448902d77e68
   Joint=11   LoadPat=DEAD   CoordSys=GLOBAL   F1=0   F2=0   F3=-150000   M1=0   M2=0   M3=0   GUID=23294190-2e40-46b2-98e4-77d126a57cc6
   Joint=12   LoadPat=DEAD   CoordSys=GLOBAL   F1=0   F2=0   F3=-150000   M1=0   M2=0   M3=0   GUID=fe3620af-5561-49fd-85c1-9f5e8cd9f832
   Joint=13   LoadPat=DEAD   CoordSys=GLOBAL   F1=0   F2=0   F3=-150000   M1=0   M2=0   M3=0   GUID=8fc0d04f-a644-4812-80b7-59edf7e51bc1
   Joint=14   LoadPat=DEAD   CoordSys=GLOBAL   F1=0   F2=0   F3=-150000   M1=0   M2=0   M3=0   GUID=82755c77-3792-4d6a-9227-e9388c17c066
 
TABLE:  "JOINT PATTERN DEFINITIONS"
   Pattern=Default
 
TABLE:  "JOINT RESTRAINT ASSIGNMENTS"
   Joint=1   U1=Yes   U2=Yes   U3=Yes   R1=Yes   R2=Yes   R3=Yes
   Joint=5   U1=Yes   U2=Yes   U3=Yes   R1=Yes   R2=Yes   R3=Yes
 
TABLE:  "LOAD CASE DEFINITIONS"
   Case=DEAD   Type=LinStatic   InitialCond=Zero   DesTypeOpt="Prog Det"   DesignType=Dead   DesActOpt="Prog Det"   DesignAct=Non-Composite   AutoType=None   RunCase=No   GUID=1641ff5e-5bce-4dba-9efd-94835b3f234b
   Case=MODAL   Type=LinModal   InitialCond=Zero   DesTypeOpt="Prog Det"   DesignType=Other   DesActOpt="Prog Det"   DesignAct=Other   AutoType=None   RunCase=No   GUID=29b6fdb7-ab64-4fef-8e76-e5ba76ac05c8
   Case=nonlinear   Type=NonStatic   InitialCond=Zero   DesTypeOpt="Prog Det"   DesignType=Dead   DesActOpt="Prog Det"   DesignAct=Non-Composite   AutoType=None   RunCase=Yes   GUID=025e1eea-cc72-4c47-9493-7af878def18d
 
TABLE:  "LOAD PATTERN DEFINITIONS"
   LoadPat=DEAD   DesignType=Dead   SelfWtMult=1   GUID=41e67909-9ba4-43c4-b935-3e2e4a421cd5
 
TABLE:  "MASS SOURCE"
   MassSource=MSSSRC1   Elements=Yes   Masses=Yes   Loads=No   IsDefault=Yes
 
TABLE:  "MATERIAL PROPERTIES 01 - GENERAL"
   Material=4000Psi   Type=Concrete   Grade="f'c 4000 psi"   SymType=Isotropic   TempDepend=No   Color=Yellow   GUID=0170b073-dcee-40fa-bd26-58d08dc4e773   Notes="Customary f'c 4000 psi 2023-06-12 3:09:17 PM"
   Material=A416Gr270   Type=Tendon   Grade="Grade 270"   SymType=Uniaxial   TempDepend=No   Color=Yellow   GUID=9eded740-9c4e-4a7e-b602-3d40150a465f   Notes="ASTM A416 Grade 270 2023-06-12 5:01:38 PM"
   Material=steel   Type=Steel   SymType=Isotropic   TempDepend=No   Color=Magenta   GUID=76b3fd2b-6478-46e7-b606-3e343c618fb7   Notes="United States ASTM A992 Grade 50 added 2023-06-12 2:43:52 PM"
 
TABLE:  "MATERIAL PROPERTIES 02 - BASIC MECHANICAL PROPERTIES"
   Material=4000Psi   UnitWeight=23563.1216161854   UnitMass=2402.76960558926   E1=24855578060.0518   G12=10356490858.3549   U12=0.2   A1=9.89999952793124E-06
   Material=A416Gr270   UnitWeight=76972.8639422648   UnitMass=7849.04737995992   E1=196500599851.2   A1=1.16999994421006E-05
   Material=steel   UnitWeight=0   UnitMass=0   E1=200000000000   G12=76923076923.0769   U12=0.3   A1=1.16999994421006E-05
 
TABLE:  "MATERIAL PROPERTIES 03A - STEEL DATA"
   Material=steel   Fy=344737894.475789   Fu=448159262.818526   EffFy=379211683.923368   EffFu=492975189.100378   SSCurveOpt=Simple   SSHysType=Kinematic   SHard=0.015   SMax=0.11   SRup=0.17   FinalSlope=-0.1   CoupModType="Von Mises"
 
TABLE:  "MATERIAL PROPERTIES 03B - CONCRETE DATA"
   Material=4000Psi   Fc=27579031.5580631   eFc=27579031.5580631   LtWtConc=No   SSCurveOpt=Mander   SSHysType=Takeda   SFc=0.00221914   SCap=0.005   FinalSlope=-0.1   FAngle=0   DAngle=0   CoupModType="Modified Darwin-Pecknold"
 
TABLE:  "MATERIAL PROPERTIES 03F - TENDON DATA"
   Material=A416Gr270   Fy=1689905158.72032   Fu=1861584630.16926   SSCurveOpt="270 ksi"   SSHysType=Kinematic   FinalSlope=-0.1   CoupModType="Von Mises"
 
TABLE:  "MATERIAL PROPERTIES 03J - COUPLED NONLINEAR VON MISES DATA"
   Material=A416Gr270   YieldStress=1689905158.72032   LinIsoHard=No   LinKinHard=No   NLIsoSaHard=No
   Material=steel   YieldStress=379211683.923368   LinIsoHard=No   LinKinHard=No   NLIsoSaHard=No
 
TABLE:  "MATERIAL PROPERTIES 06 - DAMPING PARAMETERS"
   Material=4000Psi   ModalRatio=0   VisMass=0   VisStiff=0   HysMass=0   HysStiff=0
   Material=A416Gr270   ModalRatio=0   VisMass=0   VisStiff=0   HysMass=0   HysStiff=0
   Material=steel   ModalRatio=0   VisMass=0   VisStiff=0   HysMass=0   HysStiff=0
 
TABLE:  "MATERIAL PROPERTIES 09 - ACCEPTANCE CRITERIA"
   Material=4000Psi   IOTens=0.01   LSTens=0.02   CPTens=0.05   IOComp=-0.003   LSComp=-0.006   CPComp=-0.015   IgnoreTens=Yes
   Material=A416Gr270   IOTens=0.015   LSTens=0.023   CPTens=0.03   IOComp=-0.015   LSComp=-0.023   CPComp=-0.03
   Material=steel   IOTens=0.01   LSTens=0.02   CPTens=0.05   IOComp=-0.005   LSComp=-0.01   CPComp=-0.02
 
TABLE:  "OPTIONS - COLORS - DISPLAY"
   DeviceType=Screen   Points=Blue   LinesFrame=Blue   LinesFrmDL=Blue   LinesCable=Green   LinesTendon=Green   SpringLinks=Green   Restraints=Green   Releases=Green   Axes=Cyan   Text=Black   ShadowLines=Gray8Dark   GuideLines=Gray8Dark _
        Highlight=Red   Selection=10504778   AreaFillBot=Red   AreaFillTop=16744703   AreaFillSd=Red   AreaEdge=DarkRed   SolidF1=Red   SolidF2=Blue   SolidF3=Green   SolidF4=Yellow   SolidF5=White   SolidF6=Cyan   SolidEdge=DarkRed _
        Floor=Gray4   Background=White   BGLowLeft=White   BGLowRight=White   BGUpRight=White   Darkness=0.5
   DeviceType=Printer   Points=Gray8Dark   LinesFrame=Black   LinesFrmDL=Gray4   LinesCable=Black   LinesTendon=Black   SpringLinks=Gray8Dark   Restraints=Gray8Dark   Releases=Gray4   Axes=Black   Text=Black   ShadowLines=Gray4 _
        GuideLines=Gray4   Highlight=Black   Selection=Black   AreaFillBot=Gray4   AreaFillTop=Gray8Dark   AreaFillSd=Gray4   AreaEdge=Black   SolidF1=Gray1Light   SolidF2=Gray2   SolidF3=Gray3   SolidF4=Gray4   SolidF5=Gray5 _
        SolidF6=Gray6   SolidEdge=Black   Floor=Gray4   Background=White   BGLowLeft=White   BGLowRight=White   BGUpRight=White   Darkness=0.5
   DeviceType="Color Printer"   Points=Blue   LinesFrame=Blue   LinesFrmDL=Blue   LinesCable=Green   LinesTendon=Green   SpringLinks=Green   Restraints=Green   Releases=Green   Axes=Cyan   Text=Black   ShadowLines=Gray8Dark _
        GuideLines=Gray8Dark   Highlight=Red   Selection=10504778   AreaFillBot=Red   AreaFillTop=16744703   AreaFillSd=Red   AreaEdge=DarkRed   SolidF1=Red   SolidF2=Blue   SolidF3=Green   SolidF4=Yellow   SolidF5=White   SolidF6=Cyan _
        SolidEdge=DarkRed   Floor=Gray4   Background=White   BGLowLeft=White   BGLowRight=White   BGUpRight=White   Darkness=0.5
 
TABLE:  "OPTIONS - COLORS - OUTPUT"
   DeviceType=Screen   Contour1=13107400   Contour2=6553828   Contour3=Red   Contour4=16639   Contour5=Orange   Contour6=43775   Contour7=54527   Contour8=Yellow   Contour9=65408   Contour10=Green   Contour11=8453888   Contour12=Cyan _
        Contour13=16755200   Contour14=16733440   Contour15=Blue   Transpare=0   Ratio1=Cyan   Ratio2=Green   Ratio3=Yellow   Ratio4=Orange   Ratio5=Red   RatioNotD=Gray4   RatioNotC=Red   RatioVal1=0.5   RatioVal2=0.7   RatioVal3=0.9 _
        RatioVal4=1   DFillPos=Blue   DFillNeg=Red   DFillRPos=Green   DFillRNeg=Green
   DeviceType=Printer   Contour1=Black   Contour2=3158064   Contour3=4210752   Contour4=5263440   Contour5=6316128   Contour6=7368816   Contour7=Gray8Dark   Contour8=Gray7   Contour9=Gray6   Contour10=Gray5   Contour11=Gray4 _
        Contour12=Gray3   Contour13=Gray2   Contour14=Gray1Light   Contour15=White   Transpare=0   Ratio1=Gray2   Ratio2=Gray4   Ratio3=Gray8Dark   Ratio4=4210752   Ratio5=Black   RatioNotD=Gray4   RatioNotC=Black   RatioVal1=0.5 _
        RatioVal2=0.7   RatioVal3=0.9   RatioVal4=1   DFillPos=Gray8Dark   DFillNeg=Gray8Dark   DFillRPos=4210752   DFillRNeg=4210752
   DeviceType="Color Printer"   Contour1=13107400   Contour2=6553828   Contour3=Red   Contour4=16639   Contour5=Orange   Contour6=43775   Contour7=54527   Contour8=Yellow   Contour9=65408   Contour10=Green   Contour11=8453888 _
        Contour12=Cyan   Contour13=16755200   Contour14=16733440   Contour15=Blue   Transpare=0   Ratio1=Cyan   Ratio2=Green   Ratio3=Yellow   Ratio4=Orange   Ratio5=Red   RatioNotD=Gray4   RatioNotC=Red   RatioVal1=0.5   RatioVal2=0.7 _
        RatioVal3=0.9   RatioVal4=1   DFillPos=Blue   DFillNeg=Red   DFillRPos=Green   DFillRNeg=Green
 
TABLE:  "PREFERENCES - ALUMINUM DESIGN - AA 2015"
   THDesign=Envelopes   SRatioLimit=1   Provision=LRFD   LatFact=1.33333333333333   UseLatFact=No   Bridge=No   PhiTy=0.9   PhiTr=0.75   PhiC=0.9   PhiBo=0.9   PhiBr=0.75   PhiVo=0.9   PhiVr=0.75
 
TABLE:  "PREFERENCES - COLD FORMED DESIGN - AISI-16"
   THDesign=Envelopes   FrameType="Braced Frame"   SRatioLimit=1   SOMethod="General 2nd Order"   Provision=LRFD   LatFact=1.33333333333333   UseLatFact=No   PhiTy=0.9   PhiTr=0.75   PhiC=0.85   PhiB=0.9   PhiBPipe=0.95   PhiV=0.95
 
TABLE:  "PREFERENCES - CONCRETE DESIGN - ACI 318-19"
   THDesign=Envelopes   NumCurves=24   NumPoints=11   MinEccen=Yes   BCCDesign=Yes   IgnoreBPu=Yes   CTorsion=Yes   PatLLF=0.75   UFLimit=0.95   SeisCat=D   Rho=1   Sds=0.5   PhiT=0.9   PhiCTied=0.65   PhiCSpiral=0.75   PhiV=0.75 _
        PhiVSeismic=0.6   PhiVJoint=0.85   TanTheta=1
 
TABLE:  "PREFERENCES - CONCRETE SHELL DESIGN - EUROCODE 2-2004"
   Country="CEN Default"   GammaS=1.15   GammaC=1.5   AlphaCC=1   AlphaCT=1   CrackCond="Program Determined"   ShrDesMet="Method 1"   CotTheta=1
 
TABLE:  "PREFERENCES - DIMENSIONAL"
   MergeTol=0.001   FineGrid=0.25   Nudge=0.25   SelectTol=3   SnapTol=12   SLineThick=2   PLineThick=4   MaxFont=8   MinFont=3   AutoZoom=10   ShrinkFact=70   TextFileLen=240
 
TABLE:  "PREFERENCES - STEEL DESIGN - AISC 360-16"
   THDesign=Envelopes   FrameType=SMF   PatLLF=0.75   SRatioLimit=0.95   MaxIter=1   SDC=D   SeisCode=No   SeisLoad=No   ImpFactor=1   SystemRho=1   SystemSds=0.5   SystemR=8   SystemCd=5.5   Omega0=3   Provision=LRFD _
        AMethod="Direct Analysis"   SOMethod="General 2nd Order"   SRMethod="Tau-b Fixed"   NLCoeff=0.002   PhiB=0.9   PhiC=0.9   PhiTY=0.9   PhiTF=0.75   PhiV=0.9   PhiVRolledI=1   PhiVT=0.9   PlugWeld=Yes   HSSWelding=ERW   HSSReduceT=No _
        CheckDefl=No   DLRat=120   SDLAndLLRat=120   LLRat=360   TotalRat=240   NetRat=240
 
TABLE:  "PROGRAM CONTROL"
   ProgramName=SAP2000   Version=24.1.0   CurrUnits="N, m, C"   SteelCode="AISC 360-16"   ConcCode="ACI 318-19"   AlumCode="AA 2015"   ColdCode=AISI-16   RegenHinge=Yes
 
TABLE:  "PROJECT INFORMATION"
   Item="Company Name"
   Item="Client Name"
   Item="Project Name"
   Item="Project Number"
   Item="Model Name"
   Item="Model Description"
   Item="Revision Number"
   Item="Frame Type"
   Item=Engineer
   Item=Checker
   Item=Supervisor
   Item="Issue Code"
   Item="Design Code"
 
TABLE:  "REBAR SIZES"
   RebarID=#2   Area=3.2258E-05   Diameter=0.00635
   RebarID=#3   Area=7.09675996154547E-05   Diameter=0.009525
   RebarID=#4   Area=0.000129032001922727   Diameter=0.0127
   RebarID=#5   Area=0.000199999601538181   Diameter=0.015875
   RebarID=#6   Area=0.000283870398461819   Diameter=0.01905
   RebarID=#7   Area=0.000387096015381813   Diameter=0.022225
   RebarID=#8   Area=0.000509676413843632   Diameter=0.0254
   RebarID=#9   Area=0.00064516   Diameter=0.0286512005329132
   RebarID=#10   Area=0.00081935318769455   Diameter=0.0322579995155334
   RebarID=#11   Area=0.00100644956308365   Diameter=0.0358139991521835
   RebarID=#14   Area=0.00145161   Diameter=0.0430021989583969
   RebarID=#18   Area=0.00258064   Diameter=0.0573277992248535
   RebarID=10M   Area=0.000100000002655387   Diameter=0.011300000667572
   RebarID=15M   Area=0.000200000005310774   Diameter=0.0159999999403954
   RebarID=20M   Area=0.000300000017579794   Diameter=0.0194999997854233
   RebarID=25M   Area=0.000500000022890568   Diameter=0.0252000016093254
   RebarID=30M   Area=0.000700000008974075   Diameter=0.0299000008821487
   RebarID=35M   Area=0.00100000004578114   Diameter=0.0357000011444092
   RebarID=45M   Area=0.00150000010712624   Diameter=0.0437000003576279
   RebarID=55M   Area=0.00250000007599831   Diameter=0.0564000033855438
   RebarID=6d   Area=2.83000004149973E-05   Diameter=0.006000000166893
   RebarID=8d   Area=5.02999995571375E-05   Diameter=0.00799999997019768
   RebarID=10d   Area=7.85000013634562E-05   Diameter=0.00999999977350235
   RebarID=12d   Area=0.000113000009249449   Diameter=0.012000000333786
   RebarID=14d   Area=0.000154000010818839   Diameter=0.0140000008940697
   RebarID=16d   Area=0.000201000015431643   Diameter=0.0159999999403954
   RebarID=20d   Area=0.000314000005453825   Diameter=0.0199999995470047
   RebarID=25d   Area=0.000491000008711815   Diameter=0.0250000001907349
   RebarID=26d   Area=0.000531000029001236   Diameter=0.0259999997138977
   RebarID=28d   Area=0.000616000043275356   Diameter=0.0280000017881393
   RebarID=N12   Area=0.000113000009249449   Diameter=0.012000000333786
   RebarID=N16   Area=0.000201000015431643   Diameter=0.0159999999403954
   RebarID=N20   Area=0.000314000005453825   Diameter=0.0199999995470047
   RebarID=N24   Area=0.000452000036997795   Diameter=0.024000000667572
   RebarID=N28   Area=0.000616000043275356   Diameter=0.0280000017881393
   RebarID=N32   Area=0.00080400006172657   Diameter=0.0319999998807907
   RebarID=N36   Area=0.00102000001747131   Diameter=0.036000001001358
 
TABLE:  "SOLID PROPERTY DEFINITIONS"
   SolidProp=Solid1   Material=4000Psi   MatAngleA=0   MatAngleB=0   MatAngleC=0   InComp=Yes   Color=Gray8Dark
 
END TABLE DATA
