File H:\Doctora\Thesis\model-comparisons\sap-v24-models\3d-2side-dynamic-inelastic\3d-2side-dynamic-inelastic.$2k was saved on m/d/yy at h:mm:ss
 
TABLE:  "ACTIVE DEGREES OF FREEDOM"
   UX=Yes   UY=Yes   UZ=Yes   RX=Yes   RY=Yes   RZ=Yes
 
TABLE:  "ANALYSIS OPTIONS"
   Solver=Advanced   SolverProc=Auto   Force32Bit=No   StiffCase=None   GeomMod=None   HingeOpt="In Elements"   NumAThreads=0   MaxFileSize=0   NumDThreads=0   NumRThreads=0   UseMMFiles="Program Determined"   AllowDiff=No
 
TABLE:  "AUTO WAVE 3 - WAVE CHARACTERISTICS - GENERAL"
   WaveChar=Default   WaveType="From Theory"   KinFactor=1   SWaterDepth=45   WaveHeight=18   WavePeriod=12   WaveTheory=Linear
 
TABLE:  "CASE - DIRECT HISTORY 1 - GENERAL"
   Case=dynamic-inelastic-0.02   OutSteps=50   StepSize=0.02
   Case=dynamic-inelastic-0.002   OutSteps=500   StepSize=0.002
 
TABLE:  "CASE - DIRECT HISTORY 2 - LOAD ASSIGNMENTS"
   Case=dynamic-inelastic-0.02   LoadType="Load pattern"   LoadName=Point   Function=th-0.02   LoadSF=0.18   TimeFactor=1   ArrivalTime=0
   Case=dynamic-inelastic-0.002   LoadType="Load pattern"   LoadName=Point   Function=th-0.002   LoadSF=0.15   TimeFactor=1   ArrivalTime=0
 
TABLE:  "CASE - DIRECT HISTORY 4 - INTEGRATION PARAMETERS"
   Case=dynamic-inelastic-0.02   IntMethod=HilberHughesTaylor   Gamma=0.5   Beta=0.25   Alpha=0
   Case=dynamic-inelastic-0.002   IntMethod=HilberHughesTaylor   Gamma=0.5   Beta=0.25   Alpha=0
 
TABLE:  "CASE - DIRECT HISTORY 5 - NONLINEAR PARAMETERS"
   Case=dynamic-inelastic-0.02   GeoNonLin=None   SolScheme="Iterative Only"   DTMax=0   DTMin=0   MaxIterCS=10   MaxIterNR=40   ItConvTol=0.0001   UseLineSrch=Yes   LSPerIter=20   LSTol=0.1   LSStepFact=1.618
   Case=dynamic-inelastic-0.002   GeoNonLin=None   SolScheme="Iterative Only"   DTMax=0   DTMin=0   MaxIterCS=10   MaxIterNR=40   ItConvTol=0.0001   UseLineSrch=Yes   LSPerIter=20   LSTol=0.1   LSStepFact=1.618
 
TABLE:  "CASE - MODAL 1 - GENERAL"
   Case=MODAL   ModeType=Eigen   MaxNumModes=12   MinNumModes=1   EigenShift=0   EigenCutoff=0   EigenTol=1E-09   AutoShift=Yes
 
TABLE:  "CASE - STATIC 1 - LOAD ASSIGNMENTS"
   Case=DEAD   LoadType="Load pattern"   LoadName=DEAD   LoadSF=1
   Case=Point   LoadType="Load pattern"   LoadName=Point   LoadSF=1
 
TABLE:  "CONNECTIVITY - FRAME"
   Frame=0   JointI=0   JointJ=1   IsCurved=No   GUID=d01ae807-40f3-427f-8059-86bf1662a601
   Frame=1   JointI=1   JointJ=2   IsCurved=No   GUID=a8b6267e-344e-43b8-80ca-7a4f3066865e
   Frame=2   JointI=2   JointJ=3   IsCurved=No   GUID=900258c1-e84f-44aa-8aee-fcc88772cce8
   Frame=3   JointI=4   JointJ=3   IsCurved=No   GUID=7f957e7e-8aea-46e1-8750-86d3a9766730
   Frame=4   JointI=3   JointJ=5   IsCurved=No   GUID=41f0af2a-7cdc-4fb3-9254-e8a0bc0cc89b
   Frame=5   JointI=5   JointJ=6   IsCurved=No   GUID=06137c27-07d7-4d8b-afa4-04530fcca3f2
   Frame=6   JointI=7   JointJ=6   IsCurved=No   GUID=7f333afe-7ca7-4032-91de-8ca638d4db47
 
TABLE:  "COORDINATE SYSTEMS"
   Name=GLOBAL   Type=Cartesian   X=0   Y=0   Z=0   AboutZ=0   AboutY=0   AboutX=0
 
TABLE:  "DATABASE DOCUMENTATION"
 
TABLE:  "DATABASE FORMAT TYPES"
   UnitsCurr=Yes   OverrideE=No
 
TABLE:  "FRAME AUTO MESH ASSIGNMENTS"
   Frame=0   AutoMesh=Yes   AtJoints=Yes   AtFrames=No   NumSegments=0   MaxLength=0   MaxDegrees=0
   Frame=1   AutoMesh=Yes   AtJoints=Yes   AtFrames=No   NumSegments=0   MaxLength=0   MaxDegrees=0
   Frame=2   AutoMesh=Yes   AtJoints=Yes   AtFrames=No   NumSegments=0   MaxLength=0   MaxDegrees=0
   Frame=3   AutoMesh=Yes   AtJoints=Yes   AtFrames=No   NumSegments=0   MaxLength=0   MaxDegrees=0
   Frame=4   AutoMesh=Yes   AtJoints=Yes   AtFrames=No   NumSegments=0   MaxLength=0   MaxDegrees=0
   Frame=5   AutoMesh=Yes   AtJoints=Yes   AtFrames=No   NumSegments=0   MaxLength=0   MaxDegrees=0
   Frame=6   AutoMesh=Yes   AtJoints=Yes   AtFrames=No   NumSegments=0   MaxLength=0   MaxDegrees=0
 
TABLE:  "FRAME DESIGN PROCEDURES"
   Frame=0   DesignProc="From Material"
   Frame=1   DesignProc="From Material"
   Frame=2   DesignProc="From Material"
   Frame=3   DesignProc="From Material"
   Frame=4   DesignProc="From Material"
   Frame=5   DesignProc="From Material"
   Frame=6   DesignProc="From Material"
 
TABLE:  "FRAME HINGE ASSIGNS 02 - USER DEFINED PROPERTIES"
   Frame=0   AssignProp=p-m2-m3-5c-21p   DistType=RelDist   RelDist=0
   Frame=0   AssignProp=p-m2-m3-5c-21p   DistType=RelDist   RelDist=1
   Frame=1   AssignProp=p-m2-m3-5c-21p   DistType=RelDist   RelDist=0
   Frame=1   AssignProp=p-m2-m3-5c-21p   DistType=RelDist   RelDist=1
   Frame=2   AssignProp=p-m2-m3-5c-21p   DistType=RelDist   RelDist=0
   Frame=2   AssignProp=p-m2-m3-5c-21p   DistType=RelDist   RelDist=1
   Frame=3   AssignProp=p-m2-m3-5c-21p   DistType=RelDist   RelDist=0
   Frame=3   AssignProp=p-m2-m3-5c-21p   DistType=RelDist   RelDist=1
   Frame=4   AssignProp=p-m2-m3-5c-21p   DistType=RelDist   RelDist=0
   Frame=4   AssignProp=p-m2-m3-5c-21p   DistType=RelDist   RelDist=1
   Frame=5   AssignProp=p-m2-m3-5c-21p   DistType=RelDist   RelDist=0
   Frame=5   AssignProp=p-m2-m3-5c-21p   DistType=RelDist   RelDist=1
   Frame=6   AssignProp=p-m2-m3-5c-21p   DistType=RelDist   RelDist=0
   Frame=6   AssignProp=p-m2-m3-5c-21p   DistType=RelDist   RelDist=1
 
TABLE:  "FRAME HINGE ASSIGNS 09 - HINGE OVERWRITES"
   Frame=0   AutoDivide=No   NoLoadDrop=No   LimNegStiff=0.1
   Frame=1   AutoDivide=No   NoLoadDrop=No   LimNegStiff=0.1
   Frame=2   AutoDivide=No   NoLoadDrop=No   LimNegStiff=0.1
   Frame=3   AutoDivide=No   NoLoadDrop=No   LimNegStiff=0.1
   Frame=4   AutoDivide=No   NoLoadDrop=No   LimNegStiff=0.1
   Frame=5   AutoDivide=No   NoLoadDrop=No   LimNegStiff=0.1
   Frame=6   AutoDivide=No   NoLoadDrop=No   LimNegStiff=0.1
 
TABLE:  "FRAME LOADS - DISTRIBUTED"
   Frame=1   LoadPat=DEAD   CoordSys=GLOBAL   Type=Force   Dir=Gravity   DistType=RelDist   RelDistA=0   RelDistB=1   AbsDistA=0   AbsDistB=2   FOverLA=32700   FOverLB=32700   GUID=37b10740-5795-467d-8109-ec3fc135cf74
   Frame=2   LoadPat=DEAD   CoordSys=GLOBAL   Type=Force   Dir=Gravity   DistType=RelDist   RelDistA=0   RelDistB=1   AbsDistA=0   AbsDistB=1   FOverLA=32700   FOverLB=32700   GUID=ff2e3cc4-0b8e-4530-a35b-d8285d02025f
   Frame=4   LoadPat=DEAD   CoordSys=GLOBAL   Type=Force   Dir=Gravity   DistType=RelDist   RelDistA=0   RelDistB=1   AbsDistA=0   AbsDistB=3   FOverLA=32700   FOverLB=32700   GUID=e0d8bb02-cfb9-409d-90f4-d24ffa0a2b26
   Frame=5   LoadPat=DEAD   CoordSys=GLOBAL   Type=Force   Dir=Gravity   DistType=RelDist   RelDistA=0   RelDistB=1   AbsDistA=0   AbsDistB=2   FOverLA=32700   FOverLB=32700   GUID=cc990485-aedb-45d9-aba9-83f62d0c9024
 
TABLE:  "FRAME LOAD TRANSFER OPTIONS"
   Frame=0   Transfer=Yes
   Frame=1   Transfer=Yes
   Frame=2   Transfer=Yes
   Frame=3   Transfer=Yes
   Frame=4   Transfer=Yes
   Frame=5   Transfer=Yes
   Frame=6   Transfer=Yes
 
TABLE:  "FRAME OUTPUT STATION ASSIGNMENTS"
   Frame=0   StationType=MinNumSta   MinNumSta=3   AddAtElmInt=Yes   AddAtPtLoad=Yes
   Frame=1   StationType=MaxStaSpcg   MaxStaSpcg=0.5   AddAtElmInt=Yes   AddAtPtLoad=Yes
   Frame=2   StationType=MaxStaSpcg   MaxStaSpcg=0.5   AddAtElmInt=Yes   AddAtPtLoad=Yes
   Frame=3   StationType=MinNumSta   MinNumSta=3   AddAtElmInt=Yes   AddAtPtLoad=Yes
   Frame=4   StationType=MaxStaSpcg   MaxStaSpcg=0.5   AddAtElmInt=Yes   AddAtPtLoad=Yes
   Frame=5   StationType=MaxStaSpcg   MaxStaSpcg=0.5   AddAtElmInt=Yes   AddAtPtLoad=Yes
   Frame=6   StationType=MinNumSta   MinNumSta=3   AddAtElmInt=Yes   AddAtPtLoad=Yes
 
TABLE:  "FRAME SECTION ASSIGNMENTS"
   Frame=0   AutoSelect=N.A.   AnalSect=rectangle   MatProp=Default
   Frame=1   AutoSelect=N.A.   AnalSect=rectangle   MatProp=Default
   Frame=2   AutoSelect=N.A.   AnalSect=rectangle   MatProp=Default
   Frame=3   AutoSelect=N.A.   AnalSect=rectangle   MatProp=Default
   Frame=4   AutoSelect=N.A.   AnalSect=rectangle   MatProp=Default
   Frame=5   AutoSelect=N.A.   AnalSect=rectangle   MatProp=Default
   Frame=6   AutoSelect=N.A.   AnalSect=rectangle   MatProp=Default
 
TABLE:  "FRAME SECTION PROPERTIES 01 - GENERAL"
   SectionName=rectangle   Material=steel   Shape=Rectangular   t3=0.2   t2=0.04   Area=0.008   TorsConst=3.72913834666667E-06   I33=2.66666666666667E-05   I22=1.06666666666667E-06   I23=0   AS2=0.00666666666666667   AS3=0.00666666666666667 _
        S33Top=0.000266666666666667   S33Bot=0.000266666666666667   S22Left=5.33333333333333E-05   S22Right=5.33333333333333E-05   Z33=0.0004   Z22=8E-05   R33=0.0577350269189626   R22=0.0115470053837925   CGOffset3=0   CGOffset2=0 _
        EccV2=0   EccV3=0   Cw=0   Color=Blue   FromFile=No   AMod=1   A2Mod=0   A3Mod=0   JMod=1   I2Mod=1   I3Mod=1   MMod=1   WMod=1   Notes="Added 2023-08-04 12:09:42 PM"
 
TABLE:  "FRAME SECTION PROPERTIES 13 - TIME DEPENDENT"
   SectionName=rectangle   TypeSize=Auto   AutoSFSize=1
 
TABLE:  "FUNCTION - PLOT FUNCTIONS"
   PlotFunc=disp-1-x   Type=Joint   ObjectLabel=1   Component=RelDispU1   Mode=All
   PlotFunc=disp-3-x   Type=Joint   ObjectLabel=3   Component=RelDispU1   Mode=All
   PlotFunc=disp-3-y   Type=Joint   ObjectLabel=3   Component=RelDispU2   Mode=All
   PlotFunc=shear22-3-0   Type=Frame   ObjectLabel=3   DistType=RelDist   RelDist=0   AbsDist=0   Component=V2   Mode=All
   PlotFunc=shear33-3-0   Type=Frame   ObjectLabel=3   DistType=RelDist   RelDist=0   AbsDist=0   Component=V3   Mode=All
   PlotFunc=moment22-3-0   Type=Frame   ObjectLabel=3   DistType=RelDist   RelDist=0   AbsDist=0   Component=M2   Mode=All
   PlotFunc=moment33-3-0   Type=Frame   ObjectLabel=3   DistType=RelDist   RelDist=0   AbsDist=0   Component=M3   Mode=All
   PlotFunc=moment22-3-1   Type=Frame   ObjectLabel=3   DistType=RelDist   RelDist=1   AbsDist=3   Component=M2   Mode=All
   PlotFunc=moment33-3-1   Type=Frame   ObjectLabel=3   DistType=RelDist   RelDist=1   AbsDist=3   Component=M3   Mode=All
   PlotFunc=shear22-3-1   Type=Frame   ObjectLabel=3   DistType=RelDist   RelDist=1   AbsDist=3   Component=V2   Mode=All
   PlotFunc=shear33-3-1   Type=Frame   ObjectLabel=3   DistType=RelDist   RelDist=1   AbsDist=3   Component=V3   Mode=All
 
TABLE:  "FUNCTION - POWER SPECTRAL DENSITY - USER"
   Name=UNIFPSD   Frequency=0   Value=1
   Name=UNIFPSD   Frequency=1   Value=1
 
TABLE:  "FUNCTION - RESPONSE SPECTRUM - USER"
   Name=UNIFRS   Period=0   Accel=1   FuncDamp=0.05
   Name=UNIFRS   Period=1   Accel=1
 
TABLE:  "FUNCTION - STEADY STATE - USER"
   Name=UNIFSS   Frequency=0   Value=1
   Name=UNIFSS   Frequency=1   Value=1
 
TABLE:  "FUNCTION - TIME HISTORY - USER"
   Name=th-0.02   Time=0   Value=0
   Name=th-0.02   Time=0.02   Value=22661.246
   Name=th-0.02   Time=0.04   Value=43104.25
   Name=th-0.02   Time=0.06   Value=73661.25
   Name=th-0.02   Time=0.08   Value=69744.14
   Name=th-0.02   Time=0.1   Value=86666.67
   Name=th-0.02   Time=0.12   Value=85077.48
   Name=th-0.02   Time=0.14   Value=73661.25
   Name=th-0.02   Time=0.16   Value=80104.25
   Name=th-0.02   Time=0.18   Value=66994.58
   Name=th-0.02   Time=0.2   Value=63333.33
   Name=th-0.02   Time=0.22   Value=61733.33
   Name=th-0.02   Time=0.24   Value=41833.33
   Name=th-0.02   Time=0.26   Value=16994.58
   Name=th-0.02   Time=0.28   Value=104.2518
   Name=th-0.02   Time=0.3   Value=0
   Name=th-0.02   Time=0.32   Value=-30077.48
   Name=th-0.02   Time=0.34   Value=-15000
   Name=th-0.02   Time=0.36   Value=-33333.3
   Name=th-0.02   Time=0.38   Value=-45327.9
# ... 532 like lines cut
 
TABLE:  "GRID LINES"
   CoordSys=GLOBAL   AxisDir=X   GridID=A   XRYZCoord=0   LineType=Primary   LineColor=Gray8Dark   Visible=Yes   BubbleLoc=End   AllVisible=Yes   BubbleSize=0.4375
   CoordSys=GLOBAL   AxisDir=X   GridID=B   XRYZCoord=2   LineType=Primary   LineColor=Gray8Dark   Visible=Yes   BubbleLoc=End
   CoordSys=GLOBAL   AxisDir=X   GridID=C   XRYZCoord=3   LineType=Primary   LineColor=Gray8Dark   Visible=Yes   BubbleLoc=End
   CoordSys=GLOBAL   AxisDir=Y   GridID=1   XRYZCoord=0   LineType=Primary   LineColor=Gray8Dark   Visible=Yes   BubbleLoc=Start
   CoordSys=GLOBAL   AxisDir=Y   GridID=2   XRYZCoord=3   LineType=Primary   LineColor=Gray8Dark   Visible=Yes   BubbleLoc=Start
   CoordSys=GLOBAL   AxisDir=Y   GridID=3   XRYZCoord=5   LineType=Primary   LineColor=Gray8Dark   Visible=Yes   BubbleLoc=Start
   CoordSys=GLOBAL   AxisDir=Z   GridID=Z1   XRYZCoord=0   LineType=Primary   LineColor=Gray8Dark   Visible=Yes   BubbleLoc=End
   CoordSys=GLOBAL   AxisDir=Z   GridID=Z2   XRYZCoord=3   LineType=Primary   LineColor=Gray8Dark   Visible=Yes   BubbleLoc=End
 
TABLE:  "GROUPS 1 - DEFINITIONS"
   GroupName=ALL   Selection=Yes   SectionCut=Yes   Steel=Yes   Concrete=Yes   Aluminum=Yes   ColdFormed=Yes   Stage=Yes   Bridge=Yes   AutoSeismic=No   AutoWind=No   SelDesSteel=No   SelDesAlum=No   SelDesCold=No   MassWeight=Yes   Color=Red
 
TABLE:  "HINGES DEF 06 - INTERACTING - DEFORM CONTROL - GENERAL"
   HingeName=p-m2-m3-5c-21p   DOFType="Interacting P-M2-M3"   FDType=Moment-Rot   LengthType=Relative   SSRelLen=0.1   SFType=Yield   BeyondE=Extrapolated   PMMorMMSym=Circular
 
TABLE:  "HINGES DEF 07 - INTERACTING - DEFORM CONTROL - FS AND ANGS"
   HingeName=p-m2-m3-5c-21p   AxForce=0   Angle=0
 
TABLE:  "HINGES DEF 08 - INTERACTING - DEFORM CONTROL - FORCE-DEFORM"
   HingeName=p-m2-m3-5c-21p   AxForce=0   Angle=0   FDPoint=A   MomRatio=0   RCRatio=0
   HingeName=p-m2-m3-5c-21p   AxForce=0   Angle=0   FDPoint=B   MomRatio=1   RCRatio=0
   HingeName=p-m2-m3-5c-21p   AxForce=0   Angle=0   FDPoint=C   MomRatio=1   RCRatio=0.5
   HingeName=p-m2-m3-5c-21p   AxForce=0   Angle=0   FDPoint=D   MomRatio=1   RCRatio=2
   HingeName=p-m2-m3-5c-21p   AxForce=0   Angle=0   FDPoint=E   MomRatio=1   RCRatio=4
 
TABLE:  "HINGES DEF 09 - INTERACTING - DEFORM CONTROL - ACCEPTANCE"
   HingeName=p-m2-m3-5c-21p   AxForce=0   Angle=0   ACPoint=IO   AC=2
   HingeName=p-m2-m3-5c-21p   AxForce=0   Angle=0   ACPoint=LS   AC=4
   HingeName=p-m2-m3-5c-21p   AxForce=0   Angle=0   ACPoint=CP   AC=6
 
TABLE:  "HINGES DEF 11 - INTERACTING - INTERACTION SURFACE - GENERAL"
   HingeName=p-m2-m3-5c-21p   DOFType="Interacting P-M2-M3"   IntType=User   PCurve=Elastic-Plastic   SymMMandPMM=Double   NumCurves=5   NumPoints=21   ScaleP=1920000   ScaleM2=19200   ScaleM3=96000
 
TABLE:  "HINGES DEF 12 - INTERACTING - INTERACTION SURFACE - DATA"
   HingeName=p-m2-m3-5c-21p   DOFType="Interacting P-M2-M3"   CurveNum=1   PointNum=1   P=-1   M2=0   M3=0
   HingeName=p-m2-m3-5c-21p   DOFType="Interacting P-M2-M3"   CurveNum=1   PointNum=2   P=-0.9   M2=0.1125   M3=0
   HingeName=p-m2-m3-5c-21p   DOFType="Interacting P-M2-M3"   CurveNum=1   PointNum=3   P=-0.8   M2=0.225   M3=0
   HingeName=p-m2-m3-5c-21p   DOFType="Interacting P-M2-M3"   CurveNum=1   PointNum=4   P=-0.7   M2=0.3375   M3=0
   HingeName=p-m2-m3-5c-21p   DOFType="Interacting P-M2-M3"   CurveNum=1   PointNum=5   P=-0.6   M2=0.45   M3=0
   HingeName=p-m2-m3-5c-21p   DOFType="Interacting P-M2-M3"   CurveNum=1   PointNum=6   P=-0.5   M2=0.5625   M3=0
   HingeName=p-m2-m3-5c-21p   DOFType="Interacting P-M2-M3"   CurveNum=1   PointNum=7   P=-0.4   M2=0.675   M3=0
   HingeName=p-m2-m3-5c-21p   DOFType="Interacting P-M2-M3"   CurveNum=1   PointNum=8   P=-0.3   M2=0.7875   M3=0
   HingeName=p-m2-m3-5c-21p   DOFType="Interacting P-M2-M3"   CurveNum=1   PointNum=9   P=-0.2   M2=0.9   M3=0
   HingeName=p-m2-m3-5c-21p   DOFType="Interacting P-M2-M3"   CurveNum=1   PointNum=10   P=-0.1   M2=0.95   M3=0
   HingeName=p-m2-m3-5c-21p   DOFType="Interacting P-M2-M3"   CurveNum=1   PointNum=11   P=0   M2=1   M3=0
   HingeName=p-m2-m3-5c-21p   DOFType="Interacting P-M2-M3"   CurveNum=1   PointNum=12   P=0.1   M2=0.95   M3=0
   HingeName=p-m2-m3-5c-21p   DOFType="Interacting P-M2-M3"   CurveNum=1   PointNum=13   P=0.2   M2=0.9   M3=0
   HingeName=p-m2-m3-5c-21p   DOFType="Interacting P-M2-M3"   CurveNum=1   PointNum=14   P=0.3   M2=0.7875   M3=0
   HingeName=p-m2-m3-5c-21p   DOFType="Interacting P-M2-M3"   CurveNum=1   PointNum=15   P=0.4   M2=0.675   M3=0
   HingeName=p-m2-m3-5c-21p   DOFType="Interacting P-M2-M3"   CurveNum=1   PointNum=16   P=0.5   M2=0.5625   M3=0
   HingeName=p-m2-m3-5c-21p   DOFType="Interacting P-M2-M3"   CurveNum=1   PointNum=17   P=0.6   M2=0.45   M3=0
   HingeName=p-m2-m3-5c-21p   DOFType="Interacting P-M2-M3"   CurveNum=1   PointNum=18   P=0.7   M2=0.3375   M3=0
   HingeName=p-m2-m3-5c-21p   DOFType="Interacting P-M2-M3"   CurveNum=1   PointNum=19   P=0.8   M2=0.225   M3=0
   HingeName=p-m2-m3-5c-21p   DOFType="Interacting P-M2-M3"   CurveNum=1   PointNum=20   P=0.9   M2=0.1125   M3=0
# ... 85 like lines cut
 
TABLE:  "JOINT COORDINATES"
   Joint=0   CoordSys=GLOBAL   CoordType=Cartesian   XorR=0   Y=0   Z=0   SpecialJt=No   GUID=89dba011-0139-4ef9-9e56-03265d2fab1d
   Joint=1   CoordSys=GLOBAL   CoordType=Cartesian   XorR=0   Y=0   Z=3   SpecialJt=No   GUID=68deaa0e-a897-407b-abdd-1183e673b83e
   Joint=2   CoordSys=GLOBAL   CoordType=Cartesian   XorR=2   Y=0   Z=3   SpecialJt=No   GUID=e91f1861-8537-4d3b-84e8-577ac2f2b4d9
   Joint=3   CoordSys=GLOBAL   CoordType=Cartesian   XorR=3   Y=0   Z=3   SpecialJt=No   GUID=711381ad-c6e0-4195-8d89-d41123368909
   Joint=4   CoordSys=GLOBAL   CoordType=Cartesian   XorR=3   Y=0   Z=0   SpecialJt=No   GUID=c56a3b88-86f4-43c1-becf-f9c664ff8d39
   Joint=5   CoordSys=GLOBAL   CoordType=Cartesian   XorR=3   Y=3   Z=3   SpecialJt=No   GUID=88c1a769-fce1-406a-9223-f7467798b8f6
   Joint=6   CoordSys=GLOBAL   CoordType=Cartesian   XorR=3   Y=5   Z=3   SpecialJt=No   GUID=148a6b43-cdcb-46e2-a264-530f41155869
   Joint=7   CoordSys=GLOBAL   CoordType=Cartesian   XorR=3   Y=5   Z=0   SpecialJt=No   GUID=b2324568-825f-4ae6-aaa3-929f2612b435
 
TABLE:  "JOINT LOADS - FORCE"
   Joint=1   LoadPat=Point   CoordSys=GLOBAL   F1=5   F2=0   F3=0   M1=0   M2=0   M3=0   GUID=14a5626d-49b0-4930-ab28-638348a5198a
   Joint=2   LoadPat=Point   CoordSys=GLOBAL   F1=0   F2=0   F3=-2   M1=0   M2=0   M3=0   GUID=14a79b3f-3814-400e-a41a-a418d4fa25d8
   Joint=3   LoadPat=Point   CoordSys=GLOBAL   F1=0   F2=1   F3=0   M1=0   M2=0   M3=0   GUID=35312273-0bde-45a1-a089-1ae4f33d1270
 
TABLE:  "JOINT PATTERN DEFINITIONS"
   Pattern=Default
 
TABLE:  "JOINT RESTRAINT ASSIGNMENTS"
   Joint=0   U1=Yes   U2=Yes   U3=Yes   R1=Yes   R2=Yes   R3=Yes
   Joint=4   U1=Yes   U2=Yes   U3=Yes   R1=Yes   R2=Yes   R3=Yes
   Joint=7   U1=Yes   U2=Yes   U3=Yes   R1=Yes   R2=Yes   R3=Yes
 
TABLE:  "LOAD CASE DEFINITIONS"
   Case=DEAD   Type=LinStatic   InitialCond=Zero   DesTypeOpt="Prog Det"   DesignType=Dead   DesActOpt="Prog Det"   DesignAct=Non-Composite   AutoType=None   RunCase=No   GUID=f8ce5054-1149-4e01-a965-c37f9e0591bf
   Case=MODAL   Type=LinModal   InitialCond=Zero   DesTypeOpt="Prog Det"   DesignType=Other   DesActOpt="Prog Det"   DesignAct=Other   AutoType=None   RunCase=No   GUID=b208e59d-c89d-411b-b535-17322b831d81
   Case=Point   Type=LinStatic   InitialCond=Zero   DesTypeOpt="Prog Det"   DesignType=Other   DesActOpt="Prog Det"   DesignAct=Other   AutoType=None   RunCase=No   GUID=745ace7d-449b-4384-a654-7ceebe1a2b65
   Case=dynamic-inelastic-0.02   Type=NonDirHist   InitialCond=Zero   DesTypeOpt="Prog Det"   DesignType=Other   DesActOpt="Prog Det"   DesignAct="Short-Term Composite"   AutoType=None   RunCase=No   GUID=88a3c3b7-4daa-4ff4-a97a-00f5aba7726a
   Case=dynamic-inelastic-0.002   Type=NonDirHist   InitialCond=Zero   DesTypeOpt="Prog Det"   DesignType=Other   DesActOpt="Prog Det"   DesignAct="Short-Term Composite"   AutoType=None   RunCase=Yes   GUID=88a3c3b7-4daa-4ff4-a97a-00f5aba7726a
 
TABLE:  "LOAD PATTERN DEFINITIONS"
   LoadPat=DEAD   DesignType=Dead   SelfWtMult=1   GUID=fb56db75-d044-44c5-9b44-407fd7cc5b45
   LoadPat=Point   DesignType=Other   SelfWtMult=0   GUID=a9953dc0-a036-4c13-bb49-40ce4d8bf732   Notes="Added 2023-08-04 12:33:38 PM"
 
TABLE:  "MASS SOURCE"
   MassSource=MSSSRC1   Elements=No   Masses=No   Loads=Yes   IsDefault=Yes   LoadPat=DEAD   Multiplier=1
 
TABLE:  "MATERIAL PROPERTIES 01 - GENERAL"
   Material=4000Psi   Type=Concrete   Grade="f'c 4000 psi"   SymType=Isotropic   TempDepend=No   Color=Green   GUID=622e41b1-5d54-4083-a9b0-30253efb84f0   Notes="Customary f'c 4000 psi 2023-08-04 12:30:30 PM"
   Material=steel   Type=Steel   Grade="Grade 50"   SymType=Isotropic   TempDepend=No   Color=Cyan   Notes="ASTM A992 Grade 50 2023-08-04 8:39:14 AM"
 
TABLE:  "MATERIAL PROPERTIES 02 - BASIC MECHANICAL PROPERTIES"
   Material=4000Psi   UnitWeight=23563.1216161854   UnitMass=2402.76960558926   E1=24855578060.0518   G12=10356490858.3549   U12=0.2   A1=9.89999952793124E-06
   Material=steel   UnitWeight=0   UnitMass=0   E1=200000000000   G12=76923076923.0769   U12=0.3   A1=1.16999994421006E-05
 
TABLE:  "MATERIAL PROPERTIES 03A - STEEL DATA"
   Material=steel   Fy=344737894.475789   Fu=448159262.818526   EffFy=379211683.923368   EffFu=492975189.100378   SSCurveOpt=Simple   SSHysType=Kinematic   SHard=0.015   SMax=0.11   SRup=0.17   FinalSlope=-0.1   CoupModType="Von Mises"
 
TABLE:  "MATERIAL PROPERTIES 03B - CONCRETE DATA"
   Material=4000Psi   Fc=27579031.5580631   eFc=27579031.5580631   LtWtConc=No   SSCurveOpt=Mander   SSHysType=Takeda   SFc=0.00221914   SCap=0.005   FinalSlope=-0.1   FAngle=0   DAngle=0   CoupModType="Modified Darwin-Pecknold"
 
TABLE:  "MATERIAL PROPERTIES 03J - COUPLED NONLINEAR VON MISES DATA"
   Material=steel   YieldStress=379211683.923368   LinIsoHard=No   LinKinHard=No   NLIsoSaHard=No
 
TABLE:  "MATERIAL PROPERTIES 06 - DAMPING PARAMETERS"
   Material=4000Psi   ModalRatio=0   VisMass=0   VisStiff=0   HysMass=0   HysStiff=0
   Material=steel   ModalRatio=0   VisMass=0   VisStiff=0   HysMass=0   HysStiff=0
 
TABLE:  "MATERIAL PROPERTIES 09 - ACCEPTANCE CRITERIA"
   Material=4000Psi   IOTens=0.01   LSTens=0.02   CPTens=0.05   IOComp=-0.003   LSComp=-0.006   CPComp=-0.015   IgnoreTens=Yes
   Material=steel   IOTens=0.01   LSTens=0.02   CPTens=0.05   IOComp=-0.005   LSComp=-0.01   CPComp=-0.02
 
TABLE:  "OPTIONS - COLORS - DISPLAY"
   DeviceType=Screen   Points=Blue   LinesFrame=Blue   LinesFrmDL=Blue   LinesCable=Green   LinesTendon=Green   SpringLinks=Green   Restraints=Green   Releases=Green   Axes=Cyan   Text=Black   ShadowLines=Gray8Dark   GuideLines=Gray8Dark _
        Highlight=Red   Selection=10504778   AreaFillBot=Red   AreaFillTop=16744703   AreaFillSd=Red   AreaEdge=DarkRed   SolidF1=Red   SolidF2=Blue   SolidF3=Green   SolidF4=Yellow   SolidF5=White   SolidF6=Cyan   SolidEdge=DarkRed _
        Floor=Gray4   Background=White   BGLowLeft=White   BGLowRight=White   BGUpRight=White   Darkness=0.5
   DeviceType=Printer   Points=Gray8Dark   LinesFrame=Black   LinesFrmDL=Gray4   LinesCable=Black   LinesTendon=Black   SpringLinks=Gray8Dark   Restraints=Gray8Dark   Releases=Gray4   Axes=Black   Text=Black   ShadowLines=Gray4 _
        GuideLines=Gray4   Highlight=Black   Selection=Black   AreaFillBot=Gray4   AreaFillTop=Gray8Dark   AreaFillSd=Gray4   AreaEdge=Black   SolidF1=Gray1Light   SolidF2=Gray2   SolidF3=Gray3   SolidF4=Gray4   SolidF5=Gray5 _
        SolidF6=Gray6   SolidEdge=Black   Floor=Gray4   Background=White   BGLowLeft=White   BGLowRight=White   BGUpRight=White   Darkness=0.5
   DeviceType="Color Printer"   Points=Blue   LinesFrame=Blue   LinesFrmDL=Blue   LinesCable=Green   LinesTendon=Green   SpringLinks=Green   Restraints=Green   Releases=Green   Axes=Cyan   Text=Black   ShadowLines=Gray8Dark _
        GuideLines=Gray8Dark   Highlight=Red   Selection=10504778   AreaFillBot=Red   AreaFillTop=16744703   AreaFillSd=Red   AreaEdge=DarkRed   SolidF1=Red   SolidF2=Blue   SolidF3=Green   SolidF4=Yellow   SolidF5=White   SolidF6=Cyan _
        SolidEdge=DarkRed   Floor=Gray4   Background=White   BGLowLeft=White   BGLowRight=White   BGUpRight=White   Darkness=0.5
 
TABLE:  "OPTIONS - COLORS - OUTPUT"
   DeviceType=Screen   Contour1=13107400   Contour2=6553828   Contour3=Red   Contour4=16639   Contour5=Orange   Contour6=43775   Contour7=54527   Contour8=Yellow   Contour9=65408   Contour10=Green   Contour11=8453888   Contour12=Cyan _
        Contour13=16755200   Contour14=16733440   Contour15=Blue   Transpare=0   Ratio1=Cyan   Ratio2=Green   Ratio3=Yellow   Ratio4=Orange   Ratio5=Red   RatioNotD=Gray4   RatioNotC=Red   RatioVal1=0.5   RatioVal2=0.7   RatioVal3=0.9 _
        RatioVal4=1   DFillPos=Blue   DFillNeg=Red   DFillRPos=Green   DFillRNeg=Green
   DeviceType=Printer   Contour1=Black   Contour2=3158064   Contour3=4210752   Contour4=5263440   Contour5=6316128   Contour6=7368816   Contour7=Gray8Dark   Contour8=Gray7   Contour9=Gray6   Contour10=Gray5   Contour11=Gray4 _
        Contour12=Gray3   Contour13=Gray2   Contour14=Gray1Light   Contour15=White   Transpare=0   Ratio1=Gray2   Ratio2=Gray4   Ratio3=Gray8Dark   Ratio4=4210752   Ratio5=Black   RatioNotD=Gray4   RatioNotC=Black   RatioVal1=0.5 _
        RatioVal2=0.7   RatioVal3=0.9   RatioVal4=1   DFillPos=Gray8Dark   DFillNeg=Gray8Dark   DFillRPos=4210752   DFillRNeg=4210752
   DeviceType="Color Printer"   Contour1=13107400   Contour2=6553828   Contour3=Red   Contour4=16639   Contour5=Orange   Contour6=43775   Contour7=54527   Contour8=Yellow   Contour9=65408   Contour10=Green   Contour11=8453888 _
        Contour12=Cyan   Contour13=16755200   Contour14=16733440   Contour15=Blue   Transpare=0   Ratio1=Cyan   Ratio2=Green   Ratio3=Yellow   Ratio4=Orange   Ratio5=Red   RatioNotD=Gray4   RatioNotC=Red   RatioVal1=0.5   RatioVal2=0.7 _
        RatioVal3=0.9   RatioVal4=1   DFillPos=Blue   DFillNeg=Red   DFillRPos=Green   DFillRNeg=Green
 
TABLE:  "PREFERENCES - ALUMINUM DESIGN - AA 2015"
   THDesign=Envelopes   SRatioLimit=1   Provision=LRFD   LatFact=1.33333333333333   UseLatFact=No   Bridge=No   PhiTy=0.9   PhiTr=0.75   PhiC=0.9   PhiBo=0.9   PhiBr=0.75   PhiVo=0.9   PhiVr=0.75
 
TABLE:  "PREFERENCES - COLD FORMED DESIGN - AISI-16"
   THDesign=Envelopes   FrameType="Braced Frame"   SRatioLimit=1   SOMethod="General 2nd Order"   Provision=LRFD   LatFact=1.33333333333333   UseLatFact=No   PhiTy=0.9   PhiTr=0.75   PhiC=0.85   PhiB=0.9   PhiBPipe=0.95   PhiV=0.95
 
TABLE:  "PREFERENCES - CONCRETE DESIGN - ACI 318-19"
   THDesign=Envelopes   NumCurves=24   NumPoints=11   MinEccen=Yes   BCCDesign=Yes   IgnoreBPu=Yes   CTorsion=Yes   PatLLF=0.75   UFLimit=0.95   SeisCat=D   Rho=1   Sds=0.5   PhiT=0.9   PhiCTied=0.65   PhiCSpiral=0.75   PhiV=0.75 _
        PhiVSeismic=0.6   PhiVJoint=0.85   TanTheta=1
 
TABLE:  "PREFERENCES - CONCRETE SHELL DESIGN - EUROCODE 2-2004"
   Country="CEN Default"   GammaS=1.15   GammaC=1.5   AlphaCC=1   AlphaCT=1   CrackCond="Program Determined"   ShrDesMet="Method 1"   CotTheta=1
 
TABLE:  "PREFERENCES - DIMENSIONAL"
   MergeTol=0.001   FineGrid=0.25   Nudge=0.25   SelectTol=3   SnapTol=12   SLineThick=2   PLineThick=4   MaxFont=8   MinFont=3   AutoZoom=10   ShrinkFact=70   TextFileLen=240
 
TABLE:  "PREFERENCES - STEEL DESIGN - AISC 360-16"
   THDesign=Envelopes   FrameType=SMF   PatLLF=0.75   SRatioLimit=0.95   MaxIter=1   SDC=D   SeisCode=No   SeisLoad=No   ImpFactor=1   SystemRho=1   SystemSds=0.5   SystemR=8   SystemCd=5.5   Omega0=3   Provision=LRFD _
        AMethod="Direct Analysis"   SOMethod="General 2nd Order"   SRMethod="Tau-b Fixed"   NLCoeff=0.002   PhiB=0.9   PhiC=0.9   PhiTY=0.9   PhiTF=0.75   PhiV=0.9   PhiVRolledI=1   PhiVT=0.9   PlugWeld=Yes   HSSWelding=ERW   HSSReduceT=No _
        CheckDefl=No   DLRat=120   SDLAndLLRat=120   LLRat=360   TotalRat=240   NetRat=240
 
TABLE:  "PROGRAM CONTROL"
   ProgramName=SAP2000   Version=24.1.0   CurrUnits="N, m, C"   SteelCode="AISC 360-16"   ConcCode="ACI 318-19"   AlumCode="AA 2015"   ColdCode=AISI-16   RegenHinge=Yes
 
TABLE:  "PROJECT INFORMATION"
   Item="Company Name"
   Item="Client Name"
   Item="Project Name"
   Item="Project Number"
   Item="Model Name"
   Item="Model Description"
   Item="Revision Number"
   Item="Frame Type"
   Item=Engineer
   Item=Checker
   Item=Supervisor
   Item="Issue Code"
   Item="Design Code"
 
TABLE:  "REBAR SIZES"
   RebarID=#2   Area=3.2258E-05   Diameter=0.00635
   RebarID=#3   Area=7.09675996154547E-05   Diameter=0.009525
   RebarID=#4   Area=0.000129032001922727   Diameter=0.0127
   RebarID=#5   Area=0.000199999601538181   Diameter=0.015875
   RebarID=#6   Area=0.000283870398461819   Diameter=0.01905
   RebarID=#7   Area=0.000387096015381813   Diameter=0.022225
   RebarID=#8   Area=0.000509676413843632   Diameter=0.0254
   RebarID=#9   Area=0.00064516   Diameter=0.0286512005329132
   RebarID=#10   Area=0.00081935318769455   Diameter=0.0322579995155334
   RebarID=#11   Area=0.00100644956308365   Diameter=0.0358139991521835
   RebarID=#14   Area=0.00145161   Diameter=0.0430021989583969
   RebarID=#18   Area=0.00258064   Diameter=0.0573277992248535
   RebarID=10M   Area=0.000100000002655387   Diameter=0.011300000667572
   RebarID=15M   Area=0.000200000005310774   Diameter=0.0159999999403954
   RebarID=20M   Area=0.000300000017579794   Diameter=0.0194999997854233
   RebarID=25M   Area=0.000500000022890568   Diameter=0.0252000016093254
   RebarID=30M   Area=0.000700000008974075   Diameter=0.0299000008821487
   RebarID=35M   Area=0.00100000004578114   Diameter=0.0357000011444092
   RebarID=45M   Area=0.00150000010712624   Diameter=0.0437000003576279
   RebarID=55M   Area=0.00250000007599831   Diameter=0.0564000033855438
   RebarID=6d   Area=2.83000004149973E-05   Diameter=0.006000000166893
   RebarID=8d   Area=5.02999995571375E-05   Diameter=0.00799999997019768
   RebarID=10d   Area=7.85000013634562E-05   Diameter=0.00999999977350235
   RebarID=12d   Area=0.000113000009249449   Diameter=0.012000000333786
   RebarID=14d   Area=0.000154000010818839   Diameter=0.0140000008940697
   RebarID=16d   Area=0.000201000015431643   Diameter=0.0159999999403954
   RebarID=20d   Area=0.000314000005453825   Diameter=0.0199999995470047
   RebarID=25d   Area=0.000491000008711815   Diameter=0.0250000001907349
   RebarID=26d   Area=0.000531000029001236   Diameter=0.0259999997138977
   RebarID=28d   Area=0.000616000043275356   Diameter=0.0280000017881393
   RebarID=N12   Area=0.000113000009249449   Diameter=0.012000000333786
   RebarID=N16   Area=0.000201000015431643   Diameter=0.0159999999403954
   RebarID=N20   Area=0.000314000005453825   Diameter=0.0199999995470047
   RebarID=N24   Area=0.000452000036997795   Diameter=0.024000000667572
   RebarID=N28   Area=0.000616000043275356   Diameter=0.0280000017881393
   RebarID=N32   Area=0.00080400006172657   Diameter=0.0319999998807907
   RebarID=N36   Area=0.00102000001747131   Diameter=0.036000001001358
 
END TABLE DATA
